@<TRIPOS>MOLECULE
3R135
127   129    1
SMALL
USER_CHARGES


@<TRIPOS>ATOM
      1 CA        -74.0800   25.3502  -69.9118 C.3       0 UNK        -0.1998 
      2 C         -75.5893   25.1783  -69.8277 C.2       0 UNK         0.4909 
      3 O         -76.0622   24.1863  -69.2723 O.2       0 UNK        -0.5240 
      4 N         -76.3440   26.1439  -70.3668 N.am      1 UNK        -0.4739 
      5 CA        -77.8060   26.1396  -70.4703 C.3       1 UNK         0.0864 
      6 C6        -78.3161   27.4917  -71.0251 C.3       11 UNK        -0.0881 
      7 S7        -80.0194   27.8920  -70.5126 S.3       11 UNK        -0.2682 
      8 C8        -80.9075   27.9402  -72.1091 C.3       11 UNK         0.0289 
      9 C9        -80.3713   28.9213  -73.1559 C.ar      11 UNK        -0.0687 
     10 C10       -80.7274   28.7201  -74.4923 C.ar      11 UNK        -0.0823 
     11 C11       -80.2601   29.5694  -75.4990 C.ar      11 UNK        -0.0830 
     12 C12       -79.4232   30.6370  -75.1634 C.ar      11 UNK        -0.1021 
     13 C13       -79.0717   30.8683  -73.8300 C.ar      11 UNK        -0.0753 
     14 C14       -79.5585   30.0166  -72.8322 C.ar      11 UNK        -0.0933 
     15 C15       -78.1985   32.0630  -73.4648 C.3       11 UNK         0.0166 
     16 S16       -76.6656   31.5882  -72.6021 S.3       11 UNK        -0.2615 
     17 C17       -75.7448   30.7252  -73.9199 C.3       11 UNK        -0.0865 
     18 CA        -74.5973   29.8480  -73.3563 C.3       10 UNK         0.0862 
     19 C         -75.1271   28.5577  -72.6793 C.2       10 UNK         0.5551 
     20 N         -75.5040   27.5321  -73.4356 N.am      10 UNK        -0.7319 
     21 O         -75.1743   28.4745  -71.4559 O.2       10 UNK        -0.5018 
     22 N         -73.6164   29.5188  -74.3959 N.am      10 UNK        -0.4509 
     23 C         -72.3281   29.8783  -74.3889 C.2       10 UNK         0.4899 
     24 O         -71.8402   30.6783  -73.5887 O.2       10 UNK        -0.4839 
     25 CA        -71.4336   29.2091  -75.4536 C.3       9 UNK         0.0222 
     26 CB        -69.9274   29.4306  -75.2006 C.3       9 UNK        -0.1966 
     27 N         -71.7218   27.7781  -75.6276 N.am      9 UNK        -0.4218 
     28 C         -71.7056   26.8188  -74.6844 C.2       9 UNK         0.5020 
     29 O         -71.3713   27.0161  -73.5155 O.2       9 UNK        -0.5274 
     30 CA        -72.1449   25.4015  -75.1019 C.3       8 UNK         0.0270 
     31 CB        -73.0989   24.7751  -74.0689 C.3       8 UNK        -0.1976 
     32 N         -72.7950   25.4001  -76.4156 N.am      8 UNK        -0.4313 
     33 C         -72.2857   24.8430  -77.5227 C.2       8 UNK         0.5041 
     34 O         -71.2537   24.1711  -77.5435 O.2       8 UNK        -0.5577 
     35 CA        -73.0325   25.1024  -78.8445 C.3       7 UNK         0.0284 
     36 CB        -73.9385   23.9107  -79.1927 C.3       7 UNK        -0.1958 
     37 N         -73.8133   26.3474  -78.8486 N.am      7 UNK        -0.4454 
     38 C         -73.2715   27.5744  -78.7737 C.2       7 UNK         0.5089 
     39 O         -72.0618   27.7731  -78.6667 O.2       7 UNK        -0.5125 
     40 CA        -74.2164   28.7905  -78.7630 C.3       6 UNK         0.0408 
     41 CB        -74.2882   29.4218  -80.1620 C.3       6 UNK        -0.1791 
     42 N         -75.5734   28.5049  -78.2925 N.am      6 UNK        -0.4762 
     43 C         -75.8917   28.0620  -77.0686 C.2       6 UNK         0.5007 
     44 O         -75.0497   27.8290  -76.1954 O.2       6 UNK        -0.5032 
     45 CA        -77.3827   27.7957  -76.7617 C.3       5 UNK         0.0783 
     46 C46       -78.3401   28.1185  -77.9467 C.3       11 UNK        -0.0857 
     47 S47       -80.0921   27.7534  -77.5918 S.3       11 UNK        -0.2512 
     48 C48       -80.6919   29.3442  -76.9413 C.3       11 UNK         0.0225 
     49 N         -77.5510   26.4401  -76.2310 N.am      5 UNK        -0.4615 
     50 C         -77.2361   25.2960  -76.8544 C.2       4 UNK         0.5053 
     51 O         -76.7174   25.2392  -77.9699 O.2       4 UNK        -0.5105 
     52 CA        -77.5566   23.9953  -76.1020 C.3       4 UNK         0.0263 
     53 CB        -76.3420   23.5388  -75.2794 C.3       4 UNK        -0.1981 
     54 N         -78.7172   24.1395  -75.2183 N.am      4 UNK        -0.4224 
     55 C         -79.9914   24.1482  -75.6440 C.2       3 UNK         0.4895 
     56 O         -80.3109   23.9746  -76.8212 O.2       3 UNK        -0.5091 
     57 CA        -81.0943   24.4085  -74.5930 C.3       3 UNK         0.0250 
     58 CB        -82.4315   23.7244  -74.9487 C.3       3 UNK        -0.1996 
     59 N         -80.6904   24.0918  -73.2169 N.am      3 UNK        -0.4254 
     60 C         -80.3081   22.9004  -72.7335 C.2       2 UNK         0.5004 
     61 O         -80.3628   21.8507  -73.3759 O.2       2 UNK        -0.5226 
     62 CA        -79.7436   22.8840  -71.2970 C.3       2 UNK         0.0269 
     63 CB        -78.6422   21.8149  -71.1305 C.3       2 UNK        -0.1926 
     64 N         -79.2522   24.1801  -70.7942 N.am      2 UNK        -0.4687 
     65 C         -78.2925   24.9533  -71.3285 C.2       1 UNK         0.5165 
     66 O         -77.8028   24.7767  -72.4483 O.2       1 UNK        -0.5079 
     67 H67       -73.6485   25.3826  -68.9107 H         1 UNK         0.0900 
     68 H68       -73.8026   26.2681  -70.4323 H         1 UNK         0.0900 
     69 H69       -73.6373   24.5104  -70.4488 H         1 UNK         0.0900 
     70 H70       -75.8839   26.9602  -70.7664 H         1 UNK         0.2959 
     71 H71       -78.1811   26.0144  -69.4524 H         1 UNK         0.1079 
     72 H72       -78.2080   27.5418  -72.1103 H         1 UNK         0.0837 
     73 H73       -77.7014   28.3059  -70.6381 H         1 UNK         0.0837 
     74 H74       -80.9031   26.9323  -72.5232 H         1 UNK         0.0685 
     75 H75       -81.9514   28.1866  -71.9112 H         1 UNK         0.0685 
     76 H76       -81.3772   27.8976  -74.7572 H         1 UNK         0.1434 
     77 H77       -79.0629   31.3010  -75.9375 H         1 UNK         0.1329 
     78 H78       -79.2899   30.2128  -71.8040 H         1 UNK         0.1335 
     79 H79       -78.7710   32.7280  -72.8170 H         1 UNK         0.0680 
     80 H80       -77.9397   32.6461  -74.3500 H         1 UNK         0.0680 
     81 H81       -76.4275   30.1315  -74.5285 H         1 UNK         0.1032 
     82 H82       -75.3369   31.4895  -74.5831 H         1 UNK         0.1032 
     83 H83       -74.0993   30.4225  -72.5728 H         1 UNK         0.0461 
     84 H84       -75.8466   26.6902  -73.0028 H         1 UNK         0.3453 
     85 H85       -75.4147   27.5794  -74.4449 H         1 UNK         0.3453 
     86 H86       -73.9289   28.8426  -75.0860 H         1 UNK         0.2984 
     87 H87       -71.6815   29.6872  -76.4022 H         1 UNK         0.0554 
     88 H88       -69.6844   30.4938  -75.1868 H         1 UNK         0.0847 
     89 H89       -69.3224   28.9721  -75.9827 H         1 UNK         0.0847 
     90 H90       -69.6121   29.0125  -74.2441 H         1 UNK         0.0847 
     91 H91       -71.9511   27.5044  -76.5761 H         1 UNK         0.3141 
     92 H92       -71.2364   24.7964  -75.1244 H         1 UNK         0.0743 
     93 H93       -74.0146   25.3542  -73.9658 H         1 UNK         0.0784 
     94 H94       -73.3732   23.7585  -74.3502 H         1 UNK         0.0784 
     95 H95       -72.6352   24.7204  -73.0832 H         1 UNK         0.0784 
     96 H96       -73.6472   25.9416  -76.4969 H         1 UNK         0.3213 
     97 H97       -72.2780   25.1903  -79.6295 H         1 UNK         0.0855 
     98 H98       -73.3483   23.0030  -79.3251 H         1 UNK         0.0814 
     99 H99       -74.4853   24.0794  -80.1205 H         1 UNK         0.0814 
    100 H100      -74.6637   23.7083  -78.4048 H         1 UNK         0.0814 
    101 H101      -74.8217   26.2554  -78.8826 H         1 UNK         0.3105 
    102 H102      -73.7846   29.5267  -78.0817 H         1 UNK         0.0547 
    103 H103      -73.2922   29.6766  -80.5272 H         1 UNK         0.0837 
    104 H104      -74.7373   28.7442  -80.8892 H         1 UNK         0.0837 
    105 H105      -74.8713   30.3428  -80.1541 H         1 UNK         0.0837 
    106 H106      -76.3157   28.6443  -78.9628 H         1 UNK         0.3020 
    107 H107      -77.6342   28.4695  -75.9425 H         1 UNK         0.1245 
    108 H108      -78.0729   27.5304  -78.8267 H         1 UNK         0.0781 
    109 H109      -78.2564   29.1671  -78.2382 H         1 UNK         0.0781 
    110 H110      -81.7820   29.3486  -76.9843 H         1 UNK         0.0836 
    111 H111      -80.3612   30.1579  -77.5885 H         1 UNK         0.0836 
    112 H112      -77.9576   26.3772  -75.3101 H         1 UNK         0.3022 
    113 H113      -77.7735   23.2256  -76.8457 H         1 UNK         0.0747 
    114 H114      -75.4631   23.4141  -75.9134 H         1 UNK         0.0793 
    115 H115      -76.0879   24.2616  -74.5041 H         1 UNK         0.0793 
    116 H116      -76.5308   22.5819  -74.7925 H         1 UNK         0.0793 
    117 H117      -78.5216   24.2774  -74.2303 H         1 UNK         0.3047 
    118 H118      -81.2667   25.4844  -74.6155 H         1 UNK         0.0822 
    119 H119      -82.3251   22.6423  -75.0278 H         1 UNK         0.0807 
    120 H120      -82.8125   24.0825  -75.9059 H         1 UNK         0.0807 
    121 H121      -83.1958   23.9331  -74.2003 H         1 UNK         0.0807 
    122 H122      -80.5956   24.8795  -72.5929 H         1 UNK         0.2946 
    123 H123      -80.5799   22.6007  -70.6555 H         1 UNK         0.1144 
    124 H124      -79.0214   20.8166  -71.3526 H         1 UNK         0.0793 
    125 H125      -77.7990   21.9997  -71.7975 H         1 UNK         0.0793 
    126 H126      -78.2608   21.7932  -70.1095 H         1 UNK         0.0793 
    127 H127      -79.6188   24.4488  -69.8908 H         1 UNK         0.2896 
@<TRIPOS>BOND
     1    1    2 1    
     2    1   67 1    
     3    1   68 1    
     4    1   69 1    
     5    2    3 2    
     6    2    4 am   BACKBONE|DICT|INTERRES
     7    4    5 1    
     8    4   70 1    
     9    5    6 1    
    10    5   65 1    
    11    5   71 1    
    12    6    7 1    
    13    6   72 1    
    14    6   73 1    
    15    7    8 1    
    16    8    9 1    
    17    8   74 1    
    18    8   75 1    
    19    9   10 ar   
    20    9   14 ar   
    21   10   11 ar   
    22   10   76 1    
    23   11   12 ar   
    24   11   48 1    
    25   12   13 ar   
    26   12   77 1    
    27   13   14 ar   
    28   13   15 1    
    29   14   78 1    
    30   15   16 1    
    31   15   79 1    
    32   15   80 1    
    33   16   17 1    
    34   17   18 1    
    35   17   81 1    
    36   17   82 1    
    37   18   19 1    
    38   18   22 1    
    39   18   83 1    
    40   19   20 am   BACKBONE|DICT|INTERRES
    41   19   21 2    
    42   20   84 1    
    43   20   85 1    
    44   22   23 am   BACKBONE|DICT|INTERRES
    45   22   86 1    
    46   23   24 2    
    47   23   25 1    
    48   25   26 1    
    49   25   27 1    
    50   25   87 1    
    51   26   88 1    
    52   26   89 1    
    53   26   90 1    
    54   27   28 am   BACKBONE|DICT|INTERRES
    55   27   91 1    
    56   28   29 2    
    57   28   30 1    
    58   30   31 1    
    59   30   32 1    
    60   30   92 1    
    61   31   93 1    
    62   31   94 1    
    63   31   95 1    
    64   32   33 am   BACKBONE|DICT|INTERRES
    65   32   96 1    
    66   33   34 2    
    67   33   35 1    
    68   35   36 1    
    69   35   37 1    
    70   35   97 1    
    71   36   98 1    
    72   36   99 1    
    73   36  100 1    
    74   37   38 am   BACKBONE|DICT|INTERRES
    75   37  101 1    
    76   38   39 2    
    77   38   40 1    
    78   40   41 1    
    79   40   42 1    
    80   40  102 1    
    81   41  103 1    
    82   41  104 1    
    83   41  105 1    
    84   42   43 am   BACKBONE|DICT|INTERRES
    85   42  106 1    
    86   43   44 2    
    87   43   45 1    
    88   45   46 1    
    89   45   49 1    
    90   45  107 1    
    91   46   47 1    
    92   46  108 1    
    93   46  109 1    
    94   47   48 1    
    95   48  110 1    
    96   48  111 1    
    97   49   50 am   BACKBONE|DICT|INTERRES
    98   49  112 1    
    99   50   51 2    
   100   50   52 1    
   101   52   53 1    
   102   52   54 1    
   103   52  113 1    
   104   53  114 1    
   105   53  115 1    
   106   53  116 1    
   107   54   55 am   BACKBONE|DICT|INTERRES
   108   54  117 1    
   109   55   56 2    
   110   55   57 1    
   111   57   58 1    
   112   57   59 1    
   113   57  118 1    
   114   58  119 1    
   115   58  120 1    
   116   58  121 1    
   117   59   60 am   BACKBONE|DICT|INTERRES
   118   59  122 1    
   119   60   61 2    
   120   60   62 1    
   121   62   63 1    
   122   62   64 1    
   123   62  123 1    
   124   63  124 1    
   125   63  125 1    
   126   63  126 1    
   127   64   65 am   BACKBONE|DICT|INTERRES
   128   64  127 1    
   129   65   66 2    
@<TRIPOS>SUBSTRUCTURE
     1 UNK         1 GROUP             0       ****    0 ROOT    
