@<TRIPOS>MOLECULE
3R135
127   129    1
SMALL
USER_CHARGES


@<TRIPOS>ATOM
      1 CA        -80.7312   30.9809  -76.0348 C.3       0 UNK        -0.1998 
      2 C         -80.4190   29.7478  -75.2004 C.2       0 UNK         0.4909 
      3 O         -79.4277   29.0703  -75.4620 O.2       0 UNK        -0.5240 
      4 N         -81.2539   29.4589  -74.1958 N.am      1 UNK        -0.4739 
      5 CA        -81.1188   28.3079  -73.2943 C.3       1 UNK         0.0864 
      6 C6        -81.9889   28.4727  -72.0205 C.3       11 UNK        -0.0881 
      7 S7        -81.7380   30.0777  -71.1822 S.3       11 UNK        -0.2682 
      8 C8        -80.6525   29.6341  -69.7901 C.3       11 UNK         0.0289 
      9 C9        -79.2712   29.1770  -70.2412 C.ar      11 UNK        -0.0687 
     10 C10       -78.8376   27.8769  -69.9621 C.ar      11 UNK        -0.0823 
     11 C11       -77.5550   27.4567  -70.3278 C.ar      11 UNK        -0.0830 
     12 C12       -76.7078   28.3566  -70.9849 C.ar      11 UNK        -0.1021 
     13 C13       -77.1307   29.6526  -71.2832 C.ar      11 UNK        -0.0753 
     14 C14       -78.4123   30.0617  -70.9030 C.ar      11 UNK        -0.0933 
     15 C15       -76.1941   30.5989  -72.0174 C.3       11 UNK         0.0166 
     16 S16       -76.4982   30.5303  -73.8054 S.3       11 UNK        -0.2615 
     17 C17       -75.0403   31.4010  -74.4724 C.3       11 UNK        -0.0865 
     18 CA        -74.1939   30.4637  -75.3781 C.3       10 UNK         0.0862 
     19 C         -73.2313   31.2222  -76.3336 C.2       10 UNK         0.5551 
     20 N         -72.7988   30.5704  -77.4040 N.am      10 UNK        -0.7319 
     21 O         -72.8846   32.3822  -76.1211 O.2       10 UNK        -0.5018 
     22 N         -73.5182   29.3823  -74.6356 N.am      10 UNK        -0.4509 
     23 C         -72.4695   29.5279  -73.8123 C.2       10 UNK         0.4899 
     24 O         -71.9669   30.6147  -73.5259 O.2       10 UNK        -0.4839 
     25 CA        -71.8630   28.2630  -73.1863 C.3       9 UNK         0.0222 
     26 CB        -72.5280   27.9662  -71.8320 C.3       9 UNK        -0.1966 
     27 N         -71.9813   27.0786  -74.0422 N.am      9 UNK        -0.4218 
     28 C         -70.9601   26.2974  -74.4162 C.2       9 UNK         0.5020 
     29 O         -69.7769   26.5549  -74.1873 O.2       9 UNK        -0.5274 
     30 CA        -71.3057   24.9733  -75.1203 C.3       8 UNK         0.0270 
     31 CB        -71.7227   23.9132  -74.0875 C.3       8 UNK        -0.1976 
     32 N         -72.3390   25.0830  -76.1527 N.am      8 UNK        -0.4313 
     33 C         -72.1478   25.6516  -77.3516 C.2       8 UNK         0.5041 
     34 O         -71.1052   26.2156  -77.6856 O.2       8 UNK        -0.5577 
     35 CA        -73.3044   25.5539  -78.3606 C.3       7 UNK         0.0284 
     36 CB        -73.3726   24.1530  -78.9910 C.3       7 UNK        -0.1958 
     37 N         -74.5911   25.8833  -77.7508 N.am      7 UNK        -0.4454 
     38 C         -74.9893   27.1330  -77.4792 C.2       7 UNK         0.5089 
     39 O         -74.3487   28.1370  -77.7907 O.2       7 UNK        -0.5125 
     40 CA        -76.3102   27.2843  -76.7032 C.3       6 UNK         0.0408 
     41 CB        -77.4998   27.2644  -77.6753 C.3       6 UNK        -0.1791 
     42 N         -76.4916   26.2522  -75.6804 N.am      6 UNK        -0.4762 
     43 C         -75.6639   26.0195  -74.6520 C.2       6 UNK         0.5007 
     44 O         -74.6697   26.7034  -74.4142 O.2       6 UNK        -0.5032 
     45 CA        -75.9395   24.7631  -73.8019 C.3       5 UNK         0.0783 
     46 C46       -76.8401   25.0551  -72.5756 C.3       11 UNK        -0.0857 
     47 S47       -75.8481   25.3287  -71.0742 S.3       11 UNK        -0.2512 
     48 C48       -77.0986   26.0463  -69.9560 C.3       11 UNK         0.0225 
     49 N         -76.4613   23.6625  -74.6138 N.am      5 UNK        -0.4615 
     50 C         -75.7475   22.9823  -75.5192 C.2       4 UNK         0.5053 
     51 O         -74.5651   23.2167  -75.7700 O.2       4 UNK        -0.5105 
     52 CA        -76.4907   21.8795  -76.2904 C.3       4 UNK         0.0263 
     53 CB        -76.5043   20.5717  -75.4835 C.3       4 UNK        -0.1981 
     54 N         -77.8646   22.2683  -76.6238 N.am      4 UNK        -0.4224 
     55 C         -78.1716   23.1842  -77.5528 C.2       3 UNK         0.4895 
     56 O         -77.3348   23.7340  -78.2697 O.2       3 UNK        -0.5091 
     57 CA        -79.6556   23.5756  -77.6884 C.3       3 UNK         0.0250 
     58 CB        -80.3840   22.6024  -78.6294 C.3       3 UNK        -0.1996 
     59 N         -80.3939   23.6783  -76.4196 N.am      3 UNK        -0.4254 
     60 C         -80.0595   24.4850  -75.4025 C.2       2 UNK         0.5004 
     61 O         -79.0131   25.1307  -75.3640 O.2       2 UNK        -0.5226 
     62 CA        -81.0244   24.5611  -74.2079 C.3       2 UNK         0.0269 
     63 CB        -80.7124   23.4531  -73.1890 C.3       2 UNK        -0.1926 
     64 N         -80.9158   25.8671  -73.5465 N.am      2 UNK        -0.4687 
     65 C         -81.4678   26.9908  -74.0244 C.2       1 UNK         0.5165 
     66 O         -82.2542   27.0037  -74.9768 O.2       1 UNK        -0.5079 
     67 H67       -79.8982   31.6821  -75.9902 H         1 UNK         0.0900 
     68 H68       -81.6266   31.4945  -75.6849 H         1 UNK         0.0900 
     69 H69       -80.8853   30.6994  -77.0761 H         1 UNK         0.0900 
     70 H70       -82.0578   30.0461  -74.0285 H         1 UNK         0.2959 
     71 H71       -80.0701   28.2533  -72.9908 H         1 UNK         0.1079 
     72 H72       -83.0488   28.4000  -72.2728 H         1 UNK         0.0837 
     73 H73       -81.7930   27.6636  -71.3144 H         1 UNK         0.0837 
     74 H74       -80.5393   30.5067  -69.1453 H         1 UNK         0.0685 
     75 H75       -81.1428   28.8704  -69.1843 H         1 UNK         0.0685 
     76 H76       -79.4941   27.1951  -69.4386 H         1 UNK         0.1434 
     77 H77       -75.7115   28.0552  -71.2705 H         1 UNK         0.1329 
     78 H78       -78.7444   31.0664  -71.1264 H         1 UNK         0.1335 
     79 H79       -76.3309   31.6214  -71.6623 H         1 UNK         0.0680 
     80 H80       -75.1554   30.3320  -71.8143 H         1 UNK         0.0680 
     81 H81       -74.4344   31.8227  -73.6691 H         1 UNK         0.1032 
     82 H82       -75.4122   32.2523  -75.0456 H         1 UNK         0.1032 
     83 H83       -74.9036   29.9743  -76.0415 H         1 UNK         0.0461 
     84 H84       -72.1736   31.0243  -78.0503 H         1 UNK         0.3453 
     85 H85       -73.1491   29.6360  -77.5972 H         1 UNK         0.3453 
     86 H86       -73.9052   28.4544  -74.7675 H         1 UNK         0.2984 
     87 H87       -70.8112   28.4870  -72.9973 H         1 UNK         0.0554 
     88 H88       -72.0153   27.1589  -71.3091 H         1 UNK         0.0847 
     89 H89       -73.5697   27.6715  -71.9561 H         1 UNK         0.0847 
     90 H90       -72.5074   28.8406  -71.1800 H         1 UNK         0.0847 
     91 H91       -72.9317   26.7949  -74.2785 H         1 UNK         0.3141 
     92 H92       -70.3944   24.6169  -75.6059 H         1 UNK         0.0743 
     93 H93       -70.9393   23.7652  -73.3430 H         1 UNK         0.0784 
     94 H94       -72.6272   24.2029  -73.5532 H         1 UNK         0.0784 
     95 H95       -71.9069   22.9480  -74.5600 H         1 UNK         0.0784 
     96 H96       -73.2084   24.5828  -75.9856 H         1 UNK         0.3213 
     97 H97       -73.1078   26.2698  -79.1621 H         1 UNK         0.0855 
     98 H98       -72.4310   23.9015  -79.4808 H         1 UNK         0.0814 
     99 H99       -74.1561   24.0975  -79.7471 H         1 UNK         0.0814 
    100 H100      -73.5701   23.3784  -78.2497 H         1 UNK         0.0814 
    101 H101      -75.1839   25.1149  -77.4665 H         1 UNK         0.3105 
    102 H102      -76.3100   28.2451  -76.1888 H         1 UNK         0.0547 
    103 H103      -77.4570   28.1154  -78.3559 H         1 UNK         0.0837 
    104 H104      -77.5133   26.3610  -78.2842 H         1 UNK         0.0837 
    105 H105      -78.4502   27.3194  -77.1455 H         1 UNK         0.0837 
    106 H106      -77.3469   25.7000  -75.7355 H         1 UNK         0.3020 
    107 H107      -74.9664   24.4241  -73.4410 H         1 UNK         0.1245 
    108 H108      -77.4866   24.2040  -72.3607 H         1 UNK         0.0781 
    109 H109      -77.5094   25.9004  -72.7513 H         1 UNK         0.0781 
    110 H110      -76.6808   26.0779  -68.9490 H         1 UNK         0.0836 
    111 H111      -77.9536   25.3695  -69.9137 H         1 UNK         0.0836 
    112 H112      -77.4473   23.4682  -74.5276 H         1 UNK         0.3022 
    113 H113      -75.9457   21.7001  -77.2200 H         1 UNK         0.0747 
    114 H114      -76.9656   19.7620  -76.0493 H         1 UNK         0.0793 
    115 H115      -75.4891   20.2558  -75.2383 H         1 UNK         0.0793 
    116 H116      -77.0482   20.6780  -74.5441 H         1 UNK         0.0793 
    117 H117      -78.6117   21.8508  -76.0882 H         1 UNK         0.3047 
    118 H118      -79.6779   24.5665  -78.1473 H         1 UNK         0.0822 
    119 H119      -81.3991   22.9389  -78.8411 H         1 UNK         0.0807 
    120 H120      -80.4431   21.5984  -78.2073 H         1 UNK         0.0807 
    121 H121      -79.8663   22.5235  -79.5866 H         1 UNK         0.0807 
    122 H122      -81.2584   23.1586  -76.3623 H         1 UNK         0.2946 
    123 H123      -82.0461   24.4283  -74.5719 H         1 UNK         0.1144 
    124 H124      -81.4029   23.4865  -72.3460 H         1 UNK         0.0793 
    125 H125      -79.7003   23.5357  -72.7942 H         1 UNK         0.0793 
    126 H126      -80.8063   22.4652  -73.6417 H         1 UNK         0.0793 
    127 H127      -80.2639   25.9291  -72.7788 H         1 UNK         0.2896 
@<TRIPOS>BOND
     1    1    2 1    
     2    1   67 1    
     3    1   68 1    
     4    1   69 1    
     5    2    3 2    
     6    2    4 am   BACKBONE|DICT|INTERRES
     7    4    5 1    
     8    4   70 1    
     9    5    6 1    
    10    5   65 1    
    11    5   71 1    
    12    6    7 1    
    13    6   72 1    
    14    6   73 1    
    15    7    8 1    
    16    8    9 1    
    17    8   74 1    
    18    8   75 1    
    19    9   10 ar   
    20    9   14 ar   
    21   10   11 ar   
    22   10   76 1    
    23   11   12 ar   
    24   11   48 1    
    25   12   13 ar   
    26   12   77 1    
    27   13   14 ar   
    28   13   15 1    
    29   14   78 1    
    30   15   16 1    
    31   15   79 1    
    32   15   80 1    
    33   16   17 1    
    34   17   18 1    
    35   17   81 1    
    36   17   82 1    
    37   18   19 1    
    38   18   22 1    
    39   18   83 1    
    40   19   20 am   BACKBONE|DICT|INTERRES
    41   19   21 2    
    42   20   84 1    
    43   20   85 1    
    44   22   23 am   BACKBONE|DICT|INTERRES
    45   22   86 1    
    46   23   24 2    
    47   23   25 1    
    48   25   26 1    
    49   25   27 1    
    50   25   87 1    
    51   26   88 1    
    52   26   89 1    
    53   26   90 1    
    54   27   28 am   BACKBONE|DICT|INTERRES
    55   27   91 1    
    56   28   29 2    
    57   28   30 1    
    58   30   31 1    
    59   30   32 1    
    60   30   92 1    
    61   31   93 1    
    62   31   94 1    
    63   31   95 1    
    64   32   33 am   BACKBONE|DICT|INTERRES
    65   32   96 1    
    66   33   34 2    
    67   33   35 1    
    68   35   36 1    
    69   35   37 1    
    70   35   97 1    
    71   36   98 1    
    72   36   99 1    
    73   36  100 1    
    74   37   38 am   BACKBONE|DICT|INTERRES
    75   37  101 1    
    76   38   39 2    
    77   38   40 1    
    78   40   41 1    
    79   40   42 1    
    80   40  102 1    
    81   41  103 1    
    82   41  104 1    
    83   41  105 1    
    84   42   43 am   BACKBONE|DICT|INTERRES
    85   42  106 1    
    86   43   44 2    
    87   43   45 1    
    88   45   46 1    
    89   45   49 1    
    90   45  107 1    
    91   46   47 1    
    92   46  108 1    
    93   46  109 1    
    94   47   48 1    
    95   48  110 1    
    96   48  111 1    
    97   49   50 am   BACKBONE|DICT|INTERRES
    98   49  112 1    
    99   50   51 2    
   100   50   52 1    
   101   52   53 1    
   102   52   54 1    
   103   52  113 1    
   104   53  114 1    
   105   53  115 1    
   106   53  116 1    
   107   54   55 am   BACKBONE|DICT|INTERRES
   108   54  117 1    
   109   55   56 2    
   110   55   57 1    
   111   57   58 1    
   112   57   59 1    
   113   57  118 1    
   114   58  119 1    
   115   58  120 1    
   116   58  121 1    
   117   59   60 am   BACKBONE|DICT|INTERRES
   118   59  122 1    
   119   60   61 2    
   120   60   62 1    
   121   62   63 1    
   122   62   64 1    
   123   62  123 1    
   124   63  124 1    
   125   63  125 1    
   126   63  126 1    
   127   64   65 am   BACKBONE|DICT|INTERRES
   128   64  127 1    
   129   65   66 2    
@<TRIPOS>SUBSTRUCTURE
     1 UNK         1 GROUP             0       ****    0 ROOT    
