@<TRIPOS>MOLECULE
3R135
127   129    1
SMALL
USER_CHARGES


@<TRIPOS>ATOM
      1 CA        -84.0792   31.4709  -74.0586 C.3       0 UNK        -0.1998 
      2 C         -82.7201   30.8084  -74.2278 C.2       0 UNK         0.4909 
      3 O         -81.7483   31.4819  -74.5722 O.2       0 UNK        -0.5240 
      4 N         -82.6457   29.4958  -73.9933 N.am      1 UNK        -0.4739 
      5 CA        -81.4391   28.6776  -74.1059 C.3       1 UNK         0.0864 
      6 C6        -80.4627   28.8727  -72.9126 C.3       11 UNK        -0.0881 
      7 S7        -81.1696   28.4461  -71.2800 S.3       11 UNK        -0.2682 
      8 C8        -80.2281   29.5524  -70.1759 C.3       11 UNK         0.0289 
      9 C9        -78.7154   29.3728  -70.2763 C.ar      11 UNK        -0.0687 
     10 C10       -78.1398   28.0986  -70.3126 C.ar      11 UNK        -0.0823 
     11 C11       -76.7554   27.9387  -70.4358 C.ar      11 UNK        -0.0830 
     12 C12       -75.9371   29.0736  -70.4666 C.ar      11 UNK        -0.1021 
     13 C13       -76.4968   30.3543  -70.4018 C.ar      11 UNK        -0.0753 
     14 C14       -77.8848   30.4956  -70.3174 C.ar      11 UNK        -0.0933 
     15 C15       -75.6128   31.5934  -70.3970 C.3       11 UNK         0.0166 
     16 S16       -75.4551   32.3212  -72.0586 S.3       11 UNK        -0.2615 
     17 C17       -74.0956   31.3351  -72.7727 C.3       11 UNK        -0.0865 
     18 CA        -74.5900   30.1238  -73.6172 C.3       10 UNK         0.0862 
     19 C         -74.9456   30.4825  -75.0935 C.2       10 UNK         0.5551 
     20 N         -74.8775   29.5425  -76.0272 N.am      10 UNK        -0.7319 
     21 O         -75.3068   31.6151  -75.4026 O.2       10 UNK        -0.5018 
     22 N         -73.7023   28.9595  -73.4590 N.am      10 UNK        -0.4509 
     23 C         -72.4222   28.8875  -73.8484 C.2       10 UNK         0.4899 
     24 O         -71.8239   29.7936  -74.4284 O.2       10 UNK        -0.4839 
     25 CA        -71.6727   27.5895  -73.5243 C.3       9 UNK         0.0222 
     26 CB        -72.2282   26.8279  -72.3012 C.3       9 UNK        -0.1966 
     27 N         -71.6939   26.7262  -74.6999 N.am      9 UNK        -0.4218 
     28 C         -70.7012   25.9096  -75.0720 C.2       9 UNK         0.5020 
     29 O         -69.6352   25.8034  -74.4628 O.2       9 UNK        -0.5274 
     30 CA        -70.9303   25.0442  -76.3232 C.3       8 UNK         0.0270 
     31 CB        -71.5667   23.7011  -75.9319 C.3       8 UNK        -0.1976 
     32 N         -71.7605   25.6820  -77.3456 N.am      8 UNK        -0.4313 
     33 C         -71.4130   26.7337  -78.0955 C.2       8 UNK         0.5041 
     34 O         -70.3286   27.3093  -77.9974 O.2       8 UNK        -0.5577 
     35 CA        -72.4325   27.2349  -79.1401 C.3       7 UNK         0.0284 
     36 CB        -72.2301   26.5214  -80.4915 C.3       7 UNK        -0.1958 
     37 N         -73.8415   27.1889  -78.7141 N.am      7 UNK        -0.4454 
     38 C         -74.6020   26.1231  -78.4275 C.2       7 UNK         0.5089 
     39 O         -74.2206   24.9546  -78.5170 O.2       7 UNK        -0.5125 
     40 CA        -76.0091   26.4206  -77.8812 C.3       6 UNK         0.0408 
     41 CB        -77.0870   25.8889  -78.8386 C.3       6 UNK        -0.1791 
     42 N         -76.2209   25.8417  -76.5516 N.am      6 UNK        -0.4762 
     43 C         -75.4368   26.0130  -75.4763 C.2       6 UNK         0.5007 
     44 O         -74.4367   26.7327  -75.4694 O.2       6 UNK        -0.5032 
     45 CA        -75.8283   25.2755  -74.1848 C.3       5 UNK         0.0783 
     46 C46       -76.6861   26.1915  -73.2787 C.3       11 UNK        -0.0857 
     47 S47       -77.0140   25.4237  -71.6566 S.3       11 UNK        -0.2512 
     48 C48       -76.1395   26.5437  -70.5072 C.3       11 UNK         0.0225 
     49 N         -76.5056   24.0121  -74.4903 N.am      5 UNK        -0.4615 
     50 C         -75.9035   22.8164  -74.5333 C.2       4 UNK         0.5053 
     51 O         -74.7048   22.6470  -74.3119 O.2       4 UNK        -0.5105 
     52 CA        -76.7800   21.5912  -74.8548 C.3       4 UNK         0.0263 
     53 CB        -77.1957   20.8807  -73.5563 C.3       4 UNK        -0.1981 
     54 N         -77.9819   21.9252  -75.6213 N.am      4 UNK        -0.4224 
     55 C         -77.9907   22.2524  -76.9211 C.2       3 UNK         0.4895 
     56 O         -76.9952   22.2176  -77.6433 O.2       3 UNK        -0.5091 
     57 CA        -79.3335   22.7209  -77.5139 C.3       3 UNK         0.0250 
     58 CB        -80.0471   21.5529  -78.2138 C.3       3 UNK        -0.1996 
     59 N         -80.2471   23.3343  -76.5398 N.am      3 UNK        -0.4254 
     60 C         -79.9821   24.4413  -75.8334 C.2       2 UNK         0.5004 
     61 O         -78.9072   25.0453  -75.8813 O.2       2 UNK        -0.5226 
     62 CA        -81.0680   24.9215  -74.8689 C.3       2 UNK         0.0269 
     63 CB        -80.9648   24.1776  -73.5244 C.3       2 UNK        -0.1926 
     64 N         -80.8898   26.3539  -74.6510 N.am      2 UNK        -0.4687 
     65 C         -81.8572   27.2081  -74.3037 C.2       1 UNK         0.5165 
     66 O         -83.0347   26.8738  -74.1342 O.2       1 UNK        -0.5079 
     67 H67       -84.3962   31.9233  -74.9979 H         1 UNK         0.0900 
     68 H68       -84.0226   32.2548  -73.3039 H         1 UNK         0.0900 
     69 H69       -84.8438   30.7581  -73.7500 H         1 UNK         0.0900 
     70 H70       -83.4713   28.9600  -73.7528 H         1 UNK         0.2959 
     71 H71       -80.9236   28.9738  -75.0225 H         1 UNK         0.1079 
     72 H72       -79.5558   28.2828  -73.0569 H         1 UNK         0.0837 
     73 H73       -80.1287   29.9111  -72.8885 H         1 UNK         0.0837 
     74 H74       -80.5092   30.5823  -70.4020 H         1 UNK         0.0685 
     75 H75       -80.5356   29.3659  -69.1464 H         1 UNK         0.0685 
     76 H76       -78.7759   27.2254  -70.2665 H         1 UNK         0.1434 
     77 H77       -74.8634   28.9646  -70.5352 H         1 UNK         0.1329 
     78 H78       -78.3167   31.4864  -70.2760 H         1 UNK         0.1335 
     79 H79       -76.0474   32.3425  -69.7332 H         1 UNK         0.0680 
     80 H80       -74.6289   31.3670  -69.9837 H         1 UNK         0.0680 
     81 H81       -73.4593   30.9972  -71.9538 H         1 UNK         0.1032 
     82 H82       -73.4581   31.9893  -73.3704 H         1 UNK         0.1032 
     83 H83       -75.5374   29.7895  -73.1944 H         1 UNK         0.0461 
     84 H84       -75.1228   29.7899  -76.9705 H         1 UNK         0.3453 
     85 H85       -74.6104   28.5937  -75.7870 H         1 UNK         0.3453 
     86 H86       -74.1148   28.1466  -73.0303 H         1 UNK         0.2984 
     87 H87       -70.6438   27.8804  -73.3016 H         1 UNK         0.0554 
     88 H88       -71.5667   26.0069  -72.0237 H         1 UNK         0.0847 
     89 H89       -73.2118   26.4004  -72.4925 H         1 UNK         0.0847 
     90 H90       -72.3070   27.4805  -71.4306 H         1 UNK         0.0847 
     91 H91       -72.5496   26.7518  -75.2501 H         1 UNK         0.3141 
     92 H92       -69.9528   24.8432  -76.7665 H         1 UNK         0.0743 
     93 H93       -72.5646   23.8378  -75.5133 H         1 UNK         0.0784 
     94 H94       -71.6527   23.0359  -76.7912 H         1 UNK         0.0784 
     95 H95       -70.9657   23.1855  -75.1815 H         1 UNK         0.0784 
     96 H96       -72.6643   25.2585  -77.5451 H         1 UNK         0.3213 
     97 H97       -72.2116   28.2923  -79.2961 H         1 UNK         0.0855 
     98 H98       -71.2078   26.6514  -80.8491 H         1 UNK         0.0814 
     99 H99       -72.8940   26.9242  -81.2563 H         1 UNK         0.0814 
    100 H100      -72.4118   25.4487  -80.4200 H         1 UNK         0.0814 
    101 H101      -74.2575   28.0977  -78.5692 H         1 UNK         0.3105 
    102 H102      -76.1385   27.5003  -77.7895 H         1 UNK         0.0547 
    103 H103      -76.9829   26.3317  -79.8298 H         1 UNK         0.0837 
    104 H104      -77.0185   24.8065  -78.9561 H         1 UNK         0.0837 
    105 H105      -78.0894   26.1246  -78.4806 H         1 UNK         0.0837 
    106 H106      -77.0674   25.2940  -76.4353 H         1 UNK         0.3020 
    107 H107      -74.8959   25.0642  -73.6566 H         1 UNK         0.1245 
    108 H108      -77.6461   26.4110  -73.7493 H         1 UNK         0.0781 
    109 H109      -76.1988   27.1559  -73.1271 H         1 UNK         0.0781 
    110 H110      -75.0887   26.5947  -70.7948 H         1 UNK         0.0836 
    111 H111      -76.1629   26.1046  -69.5091 H         1 UNK         0.0836 
    112 H112      -77.4873   24.0829  -74.7259 H         1 UNK         0.3022 
    113 H113      -76.1752   20.8996  -75.4455 H         1 UNK         0.0747 
    114 H114      -77.7624   19.9727  -73.7634 H         1 UNK         0.0793 
    115 H115      -76.3200   20.5884  -72.9749 H         1 UNK         0.0793 
    116 H116      -77.8073   21.5235  -72.9215 H         1 UNK         0.0793 
    117 H117      -78.8534   21.9599  -75.1135 H         1 UNK         0.3047 
    118 H118      -79.1040   23.4785  -78.2660 H         1 UNK         0.0822 
    119 H119      -80.9478   21.8880  -78.7286 H         1 UNK         0.0807 
    120 H120      -80.3328   20.7719  -77.5080 H         1 UNK         0.0807 
    121 H121      -79.4012   21.0937  -78.9637 H         1 UNK         0.0807 
    122 H122      -81.1467   22.8882  -76.4270 H         1 UNK         0.2946 
    123 H123      -82.0449   24.7385  -75.3230 H         1 UNK         0.1144 
    124 H124      -81.0900   23.1022  -73.6561 H         1 UNK         0.0793 
    125 H125      -81.7364   24.5079  -72.8287 H         1 UNK         0.0793 
    126 H126      -79.9968   24.3407  -73.0476 H         1 UNK         0.0793 
    127 H127      -79.9517   26.6855  -74.8372 H         1 UNK         0.2896 
@<TRIPOS>BOND
     1    1    2 1    
     2    1   67 1    
     3    1   68 1    
     4    1   69 1    
     5    2    3 2    
     6    2    4 am   BACKBONE|DICT|INTERRES
     7    4    5 1    
     8    4   70 1    
     9    5    6 1    
    10    5   65 1    
    11    5   71 1    
    12    6    7 1    
    13    6   72 1    
    14    6   73 1    
    15    7    8 1    
    16    8    9 1    
    17    8   74 1    
    18    8   75 1    
    19    9   10 ar   
    20    9   14 ar   
    21   10   11 ar   
    22   10   76 1    
    23   11   12 ar   
    24   11   48 1    
    25   12   13 ar   
    26   12   77 1    
    27   13   14 ar   
    28   13   15 1    
    29   14   78 1    
    30   15   16 1    
    31   15   79 1    
    32   15   80 1    
    33   16   17 1    
    34   17   18 1    
    35   17   81 1    
    36   17   82 1    
    37   18   19 1    
    38   18   22 1    
    39   18   83 1    
    40   19   20 am   BACKBONE|DICT|INTERRES
    41   19   21 2    
    42   20   84 1    
    43   20   85 1    
    44   22   23 am   BACKBONE|DICT|INTERRES
    45   22   86 1    
    46   23   24 2    
    47   23   25 1    
    48   25   26 1    
    49   25   27 1    
    50   25   87 1    
    51   26   88 1    
    52   26   89 1    
    53   26   90 1    
    54   27   28 am   BACKBONE|DICT|INTERRES
    55   27   91 1    
    56   28   29 2    
    57   28   30 1    
    58   30   31 1    
    59   30   32 1    
    60   30   92 1    
    61   31   93 1    
    62   31   94 1    
    63   31   95 1    
    64   32   33 am   BACKBONE|DICT|INTERRES
    65   32   96 1    
    66   33   34 2    
    67   33   35 1    
    68   35   36 1    
    69   35   37 1    
    70   35   97 1    
    71   36   98 1    
    72   36   99 1    
    73   36  100 1    
    74   37   38 am   BACKBONE|DICT|INTERRES
    75   37  101 1    
    76   38   39 2    
    77   38   40 1    
    78   40   41 1    
    79   40   42 1    
    80   40  102 1    
    81   41  103 1    
    82   41  104 1    
    83   41  105 1    
    84   42   43 am   BACKBONE|DICT|INTERRES
    85   42  106 1    
    86   43   44 2    
    87   43   45 1    
    88   45   46 1    
    89   45   49 1    
    90   45  107 1    
    91   46   47 1    
    92   46  108 1    
    93   46  109 1    
    94   47   48 1    
    95   48  110 1    
    96   48  111 1    
    97   49   50 am   BACKBONE|DICT|INTERRES
    98   49  112 1    
    99   50   51 2    
   100   50   52 1    
   101   52   53 1    
   102   52   54 1    
   103   52  113 1    
   104   53  114 1    
   105   53  115 1    
   106   53  116 1    
   107   54   55 am   BACKBONE|DICT|INTERRES
   108   54  117 1    
   109   55   56 2    
   110   55   57 1    
   111   57   58 1    
   112   57   59 1    
   113   57  118 1    
   114   58  119 1    
   115   58  120 1    
   116   58  121 1    
   117   59   60 am   BACKBONE|DICT|INTERRES
   118   59  122 1    
   119   60   61 2    
   120   60   62 1    
   121   62   63 1    
   122   62   64 1    
   123   62  123 1    
   124   63  124 1    
   125   63  125 1    
   126   63  126 1    
   127   64   65 am   BACKBONE|DICT|INTERRES
   128   64  127 1    
   129   65   66 2    
@<TRIPOS>SUBSTRUCTURE
     1 UNK         1 GROUP             0       ****    0 ROOT    
