@<TRIPOS>MOLECULE
3R135
127   129    1
SMALL
USER_CHARGES


@<TRIPOS>ATOM
      1 CA        -85.5969   26.1297  -69.5609 C.3       0 UNK        -0.1998 
      2 C         -85.3755   26.7880  -70.9144 C.2       0 UNK         0.4909 
      3 O         -86.3208   26.9225  -71.6919 O.2       0 UNK        -0.5240 
      4 N         -84.1346   27.2039  -71.1979 N.am      1 UNK        -0.4739 
      5 CA        -83.7155   27.8148  -72.4658 C.3       1 UNK         0.0864 
      6 C6        -82.3188   28.4871  -72.3555 C.3       11 UNK        -0.0881 
      7 S7        -81.0256   27.4182  -71.6142 S.3       11 UNK        -0.2682 
      8 C8        -79.8869   28.6423  -70.8882 C.3       11 UNK         0.0289 
      9 C9        -78.6457   28.8658  -71.7443 C.ar      11 UNK        -0.0687 
     10 C10       -78.7504   29.4320  -73.0192 C.ar      11 UNK        -0.0823 
     11 C11       -77.6080   29.6685  -73.7917 C.ar      11 UNK        -0.0830 
     12 C12       -76.3505   29.3560  -73.2697 C.ar      11 UNK        -0.1021 
     13 C13       -76.2312   28.7915  -71.9962 C.ar      11 UNK        -0.0753 
     14 C14       -77.3812   28.5392  -71.2426 C.ar      11 UNK        -0.0933 
     15 C15       -74.8530   28.4962  -71.4274 C.3       11 UNK         0.0166 
     16 S16       -74.0877   27.0723  -72.2588 S.3       11 UNK        -0.2615 
     17 C17       -72.3340   27.2480  -71.7708 C.3       11 UNK        -0.0865 
     18 CA        -71.6279   28.5087  -72.3482 C.3       10 UNK         0.0862 
     19 C         -70.1142   28.5406  -71.9884 C.2       10 UNK         0.5551 
     20 N         -69.2042   28.7838  -72.9258 N.am      10 UNK        -0.7319 
     21 O         -69.7569   28.3632  -70.8262 O.2       10 UNK        -0.5018 
     22 N         -71.8805   28.6674  -73.7864 N.am      10 UNK        -0.4509 
     23 C         -72.2525   29.8040  -74.3881 C.2       10 UNK         0.4899 
     24 O         -72.4963   30.8480  -73.7813 O.2       10 UNK        -0.4839 
     25 CA        -72.3935   29.7765  -75.9256 C.3       9 UNK         0.0222 
     26 CB        -72.0722   31.1401  -76.5729 C.3       9 UNK        -0.1966 
     27 N         -71.6387   28.6992  -76.5812 N.am      9 UNK        -0.4218 
     28 C         -70.3122   28.4965  -76.5307 C.2       9 UNK         0.5020 
     29 O         -69.5309   29.2403  -75.9327 O.2       9 UNK        -0.5274 
     30 CA        -69.7831   27.2180  -77.2139 C.3       8 UNK         0.0270 
     31 CB        -68.3127   26.9200  -76.8514 C.3       8 UNK        -0.1976 
     32 N         -70.6074   26.0273  -76.9620 N.am      8 UNK        -0.4313 
     33 C         -71.0155   25.5409  -75.7800 C.2       8 UNK         0.5041 
     34 O         -70.7918   26.0904  -74.7007 O.2       8 UNK        -0.5577 
     35 CA        -71.8375   24.2365  -75.8244 C.3       7 UNK         0.0284 
     36 CB        -72.2463   23.7506  -74.4211 C.3       7 UNK        -0.1958 
     37 N         -73.0398   24.3902  -76.6478 N.am      7 UNK        -0.4454 
     38 C         -73.0614   24.3780  -77.9896 C.2       7 UNK         0.5089 
     39 O         -72.0624   24.1589  -78.6765 O.2       7 UNK        -0.5125 
     40 CA        -74.3880   24.7220  -78.6940 C.3       6 UNK         0.0408 
     41 CB        -75.1296   23.4379  -79.0958 C.3       6 UNK        -0.1791 
     42 N         -75.2826   25.5613  -77.8948 N.am      6 UNK        -0.4762 
     43 C         -74.9989   26.7859  -77.4229 C.2       6 UNK         0.5007 
     44 O         -73.9628   27.3948  -77.6919 O.2       6 UNK        -0.5032 
     45 CA        -76.0304   27.4236  -76.4650 C.3       5 UNK         0.0783 
     46 C46       -76.8590   28.4948  -77.2248 C.3       11 UNK        -0.0857 
     47 S47       -78.3733   29.0722  -76.3785 S.3       11 UNK        -0.2512 
     48 C48       -77.7399   30.2836  -75.1772 C.3       11 UNK         0.0225 
     49 N         -76.8776   26.4453  -75.7719 N.am      5 UNK        -0.4615 
     50 C         -76.4656   25.4244  -75.0053 C.2       4 UNK         0.5053 
     51 O         -75.2862   25.1147  -74.8463 O.2       4 UNK        -0.5105 
     52 CA        -77.5622   24.5720  -74.3508 C.3       4 UNK         0.0263 
     53 CB        -77.8990   25.1224  -72.9557 C.3       4 UNK        -0.1981 
     54 N         -78.7849   24.5190  -75.1541 N.am      4 UNK        -0.4224 
     55 C         -78.9202   23.9362  -76.3522 C.2       3 UNK         0.4895 
     56 O         -78.0099   23.3140  -76.9023 O.2       3 UNK        -0.5091 
     57 CA        -80.2867   24.0970  -77.0638 C.3       3 UNK         0.0250 
     58 CB        -80.4575   23.1069  -78.2317 C.3       3 UNK        -0.1996 
     59 N         -81.4580   23.9915  -76.1790 N.am      3 UNK        -0.4254 
     60 C         -81.8253   24.8876  -75.2527 C.2       2 UNK         0.5004 
     61 O         -81.1774   25.9131  -75.0280 O.2       2 UNK        -0.5226 
     62 CA        -83.0826   24.5588  -74.4191 C.3       2 UNK         0.0269 
     63 CB        -82.9452   23.2003  -73.7064 C.3       2 UNK        -0.1926 
     64 N         -83.3385   25.5823  -73.4029 N.am      2 UNK        -0.4687 
     65 C         -83.7705   26.8266  -73.6497 C.2       1 UNK         0.5165 
     66 O         -84.1920   27.2041  -74.7450 O.2       1 UNK        -0.5079 
     67 H67       -86.3448   26.6822  -68.9928 H         1 UNK         0.0900 
     68 H68       -84.6816   26.0934  -68.9705 H         1 UNK         0.0900 
     69 H69       -85.9551   25.1094  -69.6944 H         1 UNK         0.0900 
     70 H70       -83.3938   27.0687  -70.5237 H         1 UNK         0.2959 
     71 H71       -84.4374   28.6018  -72.6968 H         1 UNK         0.1079 
     72 H72       -81.9752   28.8320  -73.3328 H         1 UNK         0.0837 
     73 H73       -82.4196   29.3863  -71.7466 H         1 UNK         0.0837 
     74 H74       -80.3912   29.5955  -70.7274 H         1 UNK         0.0685 
     75 H75       -79.6023   28.2861  -69.8970 H         1 UNK         0.0685 
     76 H76       -79.7237   29.6862  -73.4144 H         1 UNK         0.1434 
     77 H77       -75.4586   29.5552  -73.8476 H         1 UNK         0.1329 
     78 H78       -77.2888   28.1077  -70.2553 H         1 UNK         0.1335 
     79 H79       -74.2381   29.3863  -71.5545 H         1 UNK         0.0680 
     80 H80       -74.9019   28.3024  -70.3549 H         1 UNK         0.0680 
     81 H81       -72.2753   27.2431  -70.6809 H         1 UNK         0.1032 
     82 H82       -71.8143   26.3476  -72.1041 H         1 UNK         0.1032 
     83 H83       -72.0364   29.3715  -71.8226 H         1 UNK         0.0461 
     84 H84       -68.2300   28.8069  -72.6718 H         1 UNK         0.3453 
     85 H85       -69.4772   28.9331  -73.8907 H         1 UNK         0.3453 
     86 H86       -71.6508   27.8500  -74.3444 H         1 UNK         0.2984 
     87 H87       -73.4457   29.5661  -76.1193 H         1 UNK         0.0554 
     88 H88       -72.7349   31.9203  -76.1966 H         1 UNK         0.0847 
     89 H89       -72.1995   31.1055  -77.6548 H         1 UNK         0.0847 
     90 H90       -71.0494   31.4556  -76.3647 H         1 UNK         0.0847 
     91 H91       -72.2165   28.0253  -77.0782 H         1 UNK         0.3141 
     92 H92       -69.8300   27.4061  -78.2875 H         1 UNK         0.0743 
     93 H93       -68.1906   26.7490  -75.7809 H         1 UNK         0.0784 
     94 H94       -67.9451   26.0381  -77.3758 H         1 UNK         0.0784 
     95 H95       -67.6631   27.7523  -77.1255 H         1 UNK         0.0784 
     96 H96       -70.8940   25.5029  -77.7844 H         1 UNK         0.3213 
     97 H97       -71.2012   23.4674  -76.2678 H         1 UNK         0.0855 
     98 H98       -72.8562   24.4900  -73.9002 H         1 UNK         0.0814 
     99 H99       -71.3679   23.5619  -73.8027 H         1 UNK         0.0814 
    100 H100      -72.8150   22.8221  -74.4704 H         1 UNK         0.0814 
    101 H101      -73.8926   24.6280  -76.1467 H         1 UNK         0.3105 
    102 H102      -74.1422   25.2760  -79.6021 H         1 UNK         0.0547 
    103 H103      -74.4990   22.7995  -79.7161 H         1 UNK         0.0837 
    104 H104      -75.4273   22.8545  -78.2233 H         1 UNK         0.0837 
    105 H105      -76.0285   23.6604  -79.6711 H         1 UNK         0.0837 
    106 H106      -76.1508   25.1350  -77.5994 H         1 UNK         0.3020 
    107 H107      -75.4542   27.9257  -75.6860 H         1 UNK         0.1245 
    108 H108      -77.1913   28.0989  -78.1870 H         1 UNK         0.0781 
    109 H109      -76.2335   29.3570  -77.4640 H         1 UNK         0.0781 
    110 H110      -78.4341   31.1239  -75.1295 H         1 UNK         0.0836 
    111 H111      -76.7893   30.6969  -75.5177 H         1 UNK         0.0836 
    112 H112      -77.8697   26.6275  -75.8237 H         1 UNK         0.3022 
    113 H113      -77.1784   23.5554  -74.2443 H         1 UNK         0.0747 
    114 H114      -78.6196   24.4881  -72.4394 H         1 UNK         0.0793 
    115 H115      -77.0060   25.1784  -72.3311 H         1 UNK         0.0793 
    116 H116      -78.3181   26.1284  -73.0110 H         1 UNK         0.0793 
    117 H117      -79.5799   25.0617  -74.8215 H         1 UNK         0.3047 
    118 H118      -80.2869   25.1032  -77.4884 H         1 UNK         0.0822 
    119 H119      -81.3957   23.2736  -78.7614 H         1 UNK         0.0807 
    120 H120      -80.4440   22.0723  -77.8867 H         1 UNK         0.0807 
    121 H121      -79.6556   23.2174  -78.9632 H         1 UNK         0.0807 
    122 H122      -82.0152   23.1558  -76.2847 H         1 UNK         0.2946 
    123 H123      -83.9360   24.5227  -75.1000 H         1 UNK         0.1144 
    124 H124      -82.0638   23.1699  -73.0641 H         1 UNK         0.0793 
    125 H125      -82.8593   22.3790  -74.4185 H         1 UNK         0.0793 
    126 H126      -83.8169   22.9894  -73.0864 H         1 UNK         0.0793 
    127 H127      -82.9823   25.3957  -72.4770 H         1 UNK         0.2896 
@<TRIPOS>BOND
     1    1    2 1    
     2    1   67 1    
     3    1   68 1    
     4    1   69 1    
     5    2    3 2    
     6    2    4 am   BACKBONE|DICT|INTERRES
     7    4    5 1    
     8    4   70 1    
     9    5    6 1    
    10    5   65 1    
    11    5   71 1    
    12    6    7 1    
    13    6   72 1    
    14    6   73 1    
    15    7    8 1    
    16    8    9 1    
    17    8   74 1    
    18    8   75 1    
    19    9   10 ar   
    20    9   14 ar   
    21   10   11 ar   
    22   10   76 1    
    23   11   12 ar   
    24   11   48 1    
    25   12   13 ar   
    26   12   77 1    
    27   13   14 ar   
    28   13   15 1    
    29   14   78 1    
    30   15   16 1    
    31   15   79 1    
    32   15   80 1    
    33   16   17 1    
    34   17   18 1    
    35   17   81 1    
    36   17   82 1    
    37   18   19 1    
    38   18   22 1    
    39   18   83 1    
    40   19   20 am   BACKBONE|DICT|INTERRES
    41   19   21 2    
    42   20   84 1    
    43   20   85 1    
    44   22   23 am   BACKBONE|DICT|INTERRES
    45   22   86 1    
    46   23   24 2    
    47   23   25 1    
    48   25   26 1    
    49   25   27 1    
    50   25   87 1    
    51   26   88 1    
    52   26   89 1    
    53   26   90 1    
    54   27   28 am   BACKBONE|DICT|INTERRES
    55   27   91 1    
    56   28   29 2    
    57   28   30 1    
    58   30   31 1    
    59   30   32 1    
    60   30   92 1    
    61   31   93 1    
    62   31   94 1    
    63   31   95 1    
    64   32   33 am   BACKBONE|DICT|INTERRES
    65   32   96 1    
    66   33   34 2    
    67   33   35 1    
    68   35   36 1    
    69   35   37 1    
    70   35   97 1    
    71   36   98 1    
    72   36   99 1    
    73   36  100 1    
    74   37   38 am   BACKBONE|DICT|INTERRES
    75   37  101 1    
    76   38   39 2    
    77   38   40 1    
    78   40   41 1    
    79   40   42 1    
    80   40  102 1    
    81   41  103 1    
    82   41  104 1    
    83   41  105 1    
    84   42   43 am   BACKBONE|DICT|INTERRES
    85   42  106 1    
    86   43   44 2    
    87   43   45 1    
    88   45   46 1    
    89   45   49 1    
    90   45  107 1    
    91   46   47 1    
    92   46  108 1    
    93   46  109 1    
    94   47   48 1    
    95   48  110 1    
    96   48  111 1    
    97   49   50 am   BACKBONE|DICT|INTERRES
    98   49  112 1    
    99   50   51 2    
   100   50   52 1    
   101   52   53 1    
   102   52   54 1    
   103   52  113 1    
   104   53  114 1    
   105   53  115 1    
   106   53  116 1    
   107   54   55 am   BACKBONE|DICT|INTERRES
   108   54  117 1    
   109   55   56 2    
   110   55   57 1    
   111   57   58 1    
   112   57   59 1    
   113   57  118 1    
   114   58  119 1    
   115   58  120 1    
   116   58  121 1    
   117   59   60 am   BACKBONE|DICT|INTERRES
   118   59  122 1    
   119   60   61 2    
   120   60   62 1    
   121   62   63 1    
   122   62   64 1    
   123   62  123 1    
   124   63  124 1    
   125   63  125 1    
   126   63  126 1    
   127   64   65 am   BACKBONE|DICT|INTERRES
   128   64  127 1    
   129   65   66 2    
@<TRIPOS>SUBSTRUCTURE
     1 UNK         1 GROUP             0       ****    0 ROOT    
