@<TRIPOS>MOLECULE
3R135
127   129    1
SMALL
USER_CHARGES


@<TRIPOS>ATOM
      1 CA        -84.6872   29.4796  -73.8355 C.3       0 UNK        -0.1998 
      2 C         -83.4368   30.3049  -74.0982 C.2       0 UNK         0.4909 
      3 O         -83.4944   31.2865  -74.8391 O.2       0 UNK        -0.5240 
      4 N         -82.3055   29.9135  -73.4967 N.am      1 UNK        -0.4739 
      5 CA        -81.0100   30.5979  -73.6236 C.3       1 UNK         0.0864 
      6 C6        -80.0073   30.1491  -72.5327 C.3       11 UNK        -0.0881 
      7 S7        -80.6232   30.3323  -70.8242 S.3       11 UNK        -0.2682 
      8 C8        -80.5807   28.6031  -70.2210 C.3       11 UNK         0.0289 
      9 C9        -79.2069   27.9211  -70.1997 C.ar      11 UNK        -0.0687 
     10 C10       -79.1558   26.5339  -70.0191 C.ar      11 UNK        -0.0823 
     11 C11       -77.9327   25.8549  -69.9971 C.ar      11 UNK        -0.0830 
     12 C12       -76.7468   26.5735  -70.1676 C.ar      11 UNK        -0.1021 
     13 C13       -76.7791   27.9515  -70.3849 C.ar      11 UNK        -0.0753 
     14 C14       -78.0045   28.6233  -70.3622 C.ar      11 UNK        -0.0933 
     15 C15       -75.4945   28.7077  -70.6965 C.3       11 UNK         0.0166 
     16 S16       -74.9672   28.4457  -72.4257 S.3       11 UNK        -0.2615 
     17 C17       -76.4685   28.9614  -73.3348 C.3       11 UNK        -0.0865 
     18 CA        -76.2289   29.4260  -74.7936 C.3       10 UNK         0.0862 
     19 C         -75.5438   30.8225  -74.8885 C.2       10 UNK         0.5551 
     20 N         -74.5369   31.0242  -75.7308 N.am      10 UNK        -0.7319 
     21 O         -75.9420   31.7516  -74.1904 O.2       10 UNK        -0.5018 
     22 N         -75.5911   28.3691  -75.5877 N.am      10 UNK        -0.4509 
     23 C         -75.7934   28.1511  -76.8911 C.2       10 UNK         0.4899 
     24 O         -76.5976   28.7830  -77.5778 O.2       10 UNK        -0.4839 
     25 CA        -74.9103   27.0607  -77.5298 C.3       9 UNK         0.0222 
     26 CB        -75.0675   26.9816  -79.0620 C.3       9 UNK        -0.1966 
     27 N         -73.4905   27.1831  -77.1674 N.am      9 UNK        -0.4218 
     28 C         -72.7057   28.2668  -77.3086 C.2       9 UNK         0.5020 
     29 O         -73.1019   29.3464  -77.7494 O.2       9 UNK        -0.5274 
     30 CA        -71.2354   28.1602  -76.8567 C.3       8 UNK         0.0270 
     31 CB        -71.0519   28.8510  -75.4945 C.3       8 UNK        -0.1976 
     32 N         -70.7400   26.7862  -76.7622 N.am      8 UNK        -0.4313 
     33 C         -70.5545   25.9537  -77.7960 C.2       8 UNK         0.5041 
     34 O         -70.6608   26.2937  -78.9747 O.2       8 UNK        -0.5577 
     35 CA        -70.2228   24.4844  -77.4622 C.3       7 UNK         0.0284 
     36 CB        -68.7274   24.2081  -77.6904 C.3       7 UNK        -0.1958 
     37 N         -70.5891   24.0573  -76.1027 N.am      7 UNK        -0.4454 
     38 C         -71.8232   24.0872  -75.5813 C.2       7 UNK         0.5089 
     39 O         -72.8123   24.5262  -76.1776 O.2       7 UNK        -0.5125 
     40 CA        -71.9644   23.5984  -74.1350 C.3       6 UNK         0.0408 
     41 CB        -71.3302   24.5921  -73.1434 C.3       6 UNK        -0.1791 
     42 N         -73.3858   23.4633  -73.8506 N.am      6 UNK        -0.4762 
     43 C         -73.9534   22.6754  -72.9322 C.2       6 UNK         0.5007 
     44 O         -73.3166   21.9623  -72.1557 O.2       6 UNK        -0.5032 
     45 CA        -75.4950   22.6916  -72.8647 C.3       5 UNK         0.0783 
     46 C46       -75.9625   23.5988  -71.7033 C.3       11 UNK        -0.0857 
     47 S47       -77.7493   23.4490  -71.3733 S.3       11 UNK        -0.2512 
     48 C48       -77.8945   24.3462  -69.7934 C.3       11 UNK         0.0225 
     49 N         -76.0918   23.1113  -74.1378 N.am      5 UNK        -0.4615 
     50 C         -76.1540   22.3724  -75.2506 C.2       4 UNK         0.5053 
     51 O         -75.7552   21.2085  -75.3129 O.2       4 UNK        -0.5105 
     52 CA        -76.7688   23.0532  -76.4919 C.3       4 UNK         0.0263 
     53 CB        -76.9749   22.0765  -77.6646 C.3       4 UNK        -0.1981 
     54 N         -78.0438   23.7146  -76.1933 N.am      4 UNK        -0.4224 
     55 C         -78.1776   24.9054  -75.5967 C.2       3 UNK         0.4895 
     56 O         -77.2262   25.5864  -75.2092 O.2       3 UNK        -0.5091 
     57 CA        -79.6107   25.3748  -75.3153 C.3       3 UNK         0.0250 
     58 CB        -79.9691   25.1382  -73.8387 C.3       3 UNK        -0.1996 
     59 N         -79.7788   26.7936  -75.6184 N.am      3 UNK        -0.4254 
     60 C         -79.8521   27.3196  -76.8500 C.2       2 UNK         0.5004 
     61 O         -79.7705   26.6490  -77.8803 O.2       2 UNK        -0.5226 
     62 CA        -80.1145   28.8358  -76.9397 C.3       2 UNK         0.0269 
     63 CB        -81.0078   29.2071  -78.1383 C.3       2 UNK        -0.1926 
     64 N         -80.7368   29.3221  -75.7054 N.am      2 UNK        -0.4687 
     65 C         -80.3548   30.3988  -75.0085 C.2       1 UNK         0.5165 
     66 O         -79.4911   31.1885  -75.3898 O.2       1 UNK        -0.5079 
     67 H67       -85.0751   29.0779  -74.7712 H         1 UNK         0.0900 
     68 H68       -84.4918   28.6446  -73.1628 H         1 UNK         0.0900 
     69 H69       -85.4597   30.1028  -73.3859 H         1 UNK         0.0900 
     70 H70       -82.3239   29.1222  -72.8697 H         1 UNK         0.2959 
     71 H71       -81.1845   31.6700  -73.5055 H         1 UNK         0.1079 
     72 H72       -79.0954   30.7449  -72.6042 H         1 UNK         0.0837 
     73 H73       -79.7057   29.1131  -72.6982 H         1 UNK         0.0837 
     74 H74       -80.9850   28.5885  -69.2081 H         1 UNK         0.0685 
     75 H75       -81.2646   28.0133  -70.8331 H         1 UNK         0.0685 
     76 H76       -80.0755   25.9780  -69.8957 H         1 UNK         0.1434 
     77 H77       -75.7960   26.0597  -70.1622 H         1 UNK         0.1329 
     78 H78       -78.0106   29.6935  -70.5056 H         1 UNK         0.1335 
     79 H79       -74.6997   28.3763  -70.0267 H         1 UNK         0.0680 
     80 H80       -75.6218   29.7766  -70.5178 H         1 UNK         0.0680 
     81 H81       -77.1601   28.1167  -73.3359 H         1 UNK         0.1032 
     82 H82       -76.9675   29.7514  -72.7739 H         1 UNK         0.1032 
     83 H83       -77.2219   29.5869  -75.2163 H         1 UNK         0.0461 
     84 H84       -74.2146   30.2932  -76.3546 H         1 UNK         0.3453 
     85 H85       -74.1157   31.9379  -75.7761 H         1 UNK         0.3453 
     86 H86       -74.9104   27.8081  -75.0973 H         1 UNK         0.2984 
     87 H87       -75.2496   26.1112  -77.1148 H         1 UNK         0.0554 
     88 H88       -74.4661   26.1747  -79.4806 H         1 UNK         0.0847 
     89 H89       -74.7663   27.9111  -79.5465 H         1 UNK         0.0847 
     90 H90       -76.1052   26.7899  -79.3386 H         1 UNK         0.0847 
     91 H91       -73.0768   26.3350  -76.7878 H         1 UNK         0.3141 
     92 H92       -70.6283   28.6871  -77.5959 H         1 UNK         0.0743 
     93 H93       -71.6315   28.3616  -74.7103 H         1 UNK         0.0784 
     94 H94       -70.0056   28.8559  -75.1880 H         1 UNK         0.0784 
     95 H95       -71.3787   29.8912  -75.5369 H         1 UNK         0.0784 
     96 H96       -70.6031   26.4165  -75.8335 H         1 UNK         0.3213 
     97 H97       -70.7944   23.8675  -78.1591 H         1 UNK         0.0855 
     98 H98       -68.1020   24.7749  -76.9995 H         1 UNK         0.0814 
     99 H99       -68.4285   24.4861  -78.7023 H         1 UNK         0.0814 
    100 H100      -68.4941   23.1504  -77.5672 H         1 UNK         0.0814 
    101 H101      -69.8392   23.6872  -75.5354 H         1 UNK         0.3105 
    102 H102      -71.4807   22.6231  -74.0503 H         1 UNK         0.0547 
    103 H103      -70.2617   24.7111  -73.3261 H         1 UNK         0.0837 
    104 H104      -71.7880   25.5798  -73.2143 H         1 UNK         0.0837 
    105 H105      -71.4404   24.2494  -72.1145 H         1 UNK         0.0837 
    106 H106      -73.9788   23.9711  -74.4962 H         1 UNK         0.3020 
    107 H107      -75.8124   21.6670  -72.6574 H         1 UNK         0.1245 
    108 H108      -75.7315   24.6401  -71.9323 H         1 UNK         0.0781 
    109 H109      -75.4288   23.3526  -70.7828 H         1 UNK         0.0781 
    110 H110      -77.0713   24.0752  -69.1307 H         1 UNK         0.0836 
    111 H111      -78.8042   24.0155  -69.2900 H         1 UNK         0.0836 
    112 H112      -76.4530   24.0591  -74.1815 H         1 UNK         0.3022 
    113 H113      -76.0526   23.8097  -76.8194 H         1 UNK         0.0747 
    114 H114      -77.3666   22.5890  -78.5435 H         1 UNK         0.0793 
    115 H115      -76.0321   21.6128  -77.9583 H         1 UNK         0.0793 
    116 H116      -77.6672   21.2744  -77.4057 H         1 UNK         0.0793 
    117 H117      -78.8779   23.1977  -76.4330 H         1 UNK         0.3047 
    118 H118      -80.3049   24.8068  -75.9387 H         1 UNK         0.0822 
    119 H119      -79.3016   25.6813  -73.1671 H         1 UNK         0.0807 
    120 H120      -79.8924   24.0803  -73.5840 H         1 UNK         0.0807 
    121 H121      -80.9910   25.4484  -73.6201 H         1 UNK         0.0807 
    122 H122      -79.7943   27.4208  -74.8298 H         1 UNK         0.2946 
    123 H123      -79.1392   29.3075  -77.0779 H         1 UNK         0.1144 
    124 H124      -81.1744   30.2833  -78.1878 H         1 UNK         0.0793 
    125 H125      -81.9813   28.7191  -78.0804 H         1 UNK         0.0793 
    126 H126      -80.5456   28.9095  -79.0804 H         1 UNK         0.0793 
    127 H127      -81.4811   28.7525  -75.3266 H         1 UNK         0.2896 
@<TRIPOS>BOND
     1    1    2 1    
     2    1   67 1    
     3    1   68 1    
     4    1   69 1    
     5    2    3 2    
     6    2    4 am   BACKBONE|DICT|INTERRES
     7    4    5 1    
     8    4   70 1    
     9    5    6 1    
    10    5   65 1    
    11    5   71 1    
    12    6    7 1    
    13    6   72 1    
    14    6   73 1    
    15    7    8 1    
    16    8    9 1    
    17    8   74 1    
    18    8   75 1    
    19    9   10 ar   
    20    9   14 ar   
    21   10   11 ar   
    22   10   76 1    
    23   11   12 ar   
    24   11   48 1    
    25   12   13 ar   
    26   12   77 1    
    27   13   14 ar   
    28   13   15 1    
    29   14   78 1    
    30   15   16 1    
    31   15   79 1    
    32   15   80 1    
    33   16   17 1    
    34   17   18 1    
    35   17   81 1    
    36   17   82 1    
    37   18   19 1    
    38   18   22 1    
    39   18   83 1    
    40   19   20 am   BACKBONE|DICT|INTERRES
    41   19   21 2    
    42   20   84 1    
    43   20   85 1    
    44   22   23 am   BACKBONE|DICT|INTERRES
    45   22   86 1    
    46   23   24 2    
    47   23   25 1    
    48   25   26 1    
    49   25   27 1    
    50   25   87 1    
    51   26   88 1    
    52   26   89 1    
    53   26   90 1    
    54   27   28 am   BACKBONE|DICT|INTERRES
    55   27   91 1    
    56   28   29 2    
    57   28   30 1    
    58   30   31 1    
    59   30   32 1    
    60   30   92 1    
    61   31   93 1    
    62   31   94 1    
    63   31   95 1    
    64   32   33 am   BACKBONE|DICT|INTERRES
    65   32   96 1    
    66   33   34 2    
    67   33   35 1    
    68   35   36 1    
    69   35   37 1    
    70   35   97 1    
    71   36   98 1    
    72   36   99 1    
    73   36  100 1    
    74   37   38 am   BACKBONE|DICT|INTERRES
    75   37  101 1    
    76   38   39 2    
    77   38   40 1    
    78   40   41 1    
    79   40   42 1    
    80   40  102 1    
    81   41  103 1    
    82   41  104 1    
    83   41  105 1    
    84   42   43 am   BACKBONE|DICT|INTERRES
    85   42  106 1    
    86   43   44 2    
    87   43   45 1    
    88   45   46 1    
    89   45   49 1    
    90   45  107 1    
    91   46   47 1    
    92   46  108 1    
    93   46  109 1    
    94   47   48 1    
    95   48  110 1    
    96   48  111 1    
    97   49   50 am   BACKBONE|DICT|INTERRES
    98   49  112 1    
    99   50   51 2    
   100   50   52 1    
   101   52   53 1    
   102   52   54 1    
   103   52  113 1    
   104   53  114 1    
   105   53  115 1    
   106   53  116 1    
   107   54   55 am   BACKBONE|DICT|INTERRES
   108   54  117 1    
   109   55   56 2    
   110   55   57 1    
   111   57   58 1    
   112   57   59 1    
   113   57  118 1    
   114   58  119 1    
   115   58  120 1    
   116   58  121 1    
   117   59   60 am   BACKBONE|DICT|INTERRES
   118   59  122 1    
   119   60   61 2    
   120   60   62 1    
   121   62   63 1    
   122   62   64 1    
   123   62  123 1    
   124   63  124 1    
   125   63  125 1    
   126   63  126 1    
   127   64   65 am   BACKBONE|DICT|INTERRES
   128   64  127 1    
   129   65   66 2    
@<TRIPOS>SUBSTRUCTURE
     1 UNK         1 GROUP             0       ****    0 ROOT    
