@<TRIPOS>MOLECULE
3R135
127   129    1
SMALL
USER_CHARGES


@<TRIPOS>ATOM
      1 CA        -74.1634   25.2701  -70.2677 C.3       0 UNK        -0.1998 
      2 C         -75.6407   25.0575  -69.9778 C.2       0 UNK         0.4909 
      3 O         -75.9846   24.2420  -69.1221 O.2       0 UNK        -0.5240 
      4 N         -76.5155   25.7875  -70.6809 N.am      1 UNK        -0.4739 
      5 CA        -77.9717   25.7584  -70.5062 C.3       1 UNK         0.0864 
      6 C6        -78.6408   26.9580  -71.2227 C.3       11 UNK        -0.0881 
      7 S7        -78.5176   26.9089  -73.0497 S.3       11 UNK        -0.2682 
      8 C8        -79.7074   28.2017  -73.5089 C.3       11 UNK         0.0289 
      9 C9        -79.0184   29.5380  -73.7296 C.ar      11 UNK        -0.0687 
     10 C10       -78.8108   30.0058  -75.0296 C.ar      11 UNK        -0.0823 
     11 C11       -78.2102   31.2482  -75.2516 C.ar      11 UNK        -0.0830 
     12 C12       -77.8061   32.0183  -74.1552 C.ar      11 UNK        -0.1021 
     13 C13       -78.0166   31.5651  -72.8484 C.ar      11 UNK        -0.0753 
     14 C14       -78.6217   30.3225  -72.6425 C.ar      11 UNK        -0.0933 
     15 C15       -77.6611   32.4527  -71.6631 C.3       11 UNK         0.0166 
     16 S16       -75.8665   32.6280  -71.4232 S.3       11 UNK        -0.2615 
     17 C17       -75.4339   31.1123  -70.4985 C.3       11 UNK        -0.0865 
     18 CA        -74.1309   30.4692  -71.0526 C.3       10 UNK         0.0862 
     19 C         -73.4567   29.4644  -70.0667 C.2       10 UNK         0.5551 
     20 N         -72.7526   28.4450  -70.5445 N.am      10 UNK        -0.7319 
     21 O         -73.5309   29.6340  -68.8520 O.2       10 UNK        -0.5018 
     22 N         -74.2984   29.9820  -72.4315 N.am      10 UNK        -0.4509 
     23 C         -75.0200   28.9208  -72.8147 C.2       10 UNK         0.4899 
     24 O         -75.6204   28.1831  -72.0327 O.2       10 UNK        -0.4839 
     25 CA        -75.0615   28.6095  -74.3256 C.3       9 UNK         0.0222 
     26 CB        -74.1134   29.4944  -75.1664 C.3       9 UNK        -0.1966 
     27 N         -74.8171   27.1883  -74.6094 N.am      9 UNK        -0.4218 
     28 C         -73.7743   26.4551  -74.1882 C.2       9 UNK         0.5020 
     29 O         -72.8241   26.9002  -73.5414 O.2       9 UNK        -0.5274 
     30 CA        -73.8006   24.9657  -74.5497 C.3       8 UNK         0.0270 
     31 CB        -75.0018   24.2469  -73.9108 C.3       8 UNK        -0.1976 
     32 N         -73.8448   24.7752  -75.9985 N.am      8 UNK        -0.4313 
     33 C         -72.7723   24.5121  -76.7556 C.2       8 UNK         0.5041 
     34 O         -71.6193   24.4847  -76.3225 O.2       8 UNK        -0.5577 
     35 CA        -73.0112   24.1875  -78.2355 C.3       7 UNK         0.0284 
     36 CB        -73.6115   22.7799  -78.4000 C.3       7 UNK        -0.1958 
     37 N         -73.8654   25.1713  -78.9054 N.am      7 UNK        -0.4454 
     38 C         -73.6029   25.6919  -80.1138 C.2       7 UNK         0.5089 
     39 O         -72.5845   25.4377  -80.7589 O.2       7 UNK        -0.5125 
     40 CA        -74.6513   26.6299  -80.7459 C.3       6 UNK         0.0408 
     41 CB        -75.3114   25.9513  -81.9580 C.3       6 UNK        -0.1791 
     42 N         -75.7026   27.0641  -79.8246 N.am      6 UNK        -0.4762 
     43 C         -75.5444   27.9620  -78.8416 C.2       6 UNK         0.5007 
     44 O         -74.4804   28.5396  -78.6269 O.2       6 UNK        -0.5032 
     45 CA        -76.7726   28.2297  -77.9376 C.3       5 UNK         0.0783 
     46 C46       -77.4864   29.5480  -78.3310 C.3       11 UNK        -0.0857 
     47 S47       -76.6905   31.0129  -77.5809 S.3       11 UNK        -0.2512 
     48 C48       -78.0597   31.7917  -76.6670 C.3       11 UNK         0.0225 
     49 N         -77.6989   27.0865  -77.9158 N.am      5 UNK        -0.4615 
     50 C         -77.4113   25.9029  -77.3591 C.2       4 UNK         0.5053 
     51 O         -76.3839   25.6906  -76.7114 O.2       4 UNK        -0.5105 
     52 CA        -78.3770   24.7440  -77.6435 C.3       4 UNK         0.0263 
     53 CB        -77.6097   23.5007  -78.1255 C.3       4 UNK        -0.1981 
     54 N         -79.1602   24.3890  -76.4647 N.am      4 UNK        -0.4224 
     55 C         -80.1945   25.0871  -75.9869 C.2       3 UNK         0.4895 
     56 O         -80.5889   26.1408  -76.4881 O.2       3 UNK        -0.5091 
     57 CA        -80.9430   24.5153  -74.7663 C.3       3 UNK         0.0250 
     58 CB        -82.0532   23.5450  -75.2134 C.3       3 UNK        -0.1996 
     59 N         -80.1025   23.9126  -73.7191 N.am      3 UNK        -0.4254 
     60 C         -79.3157   22.8267  -73.7604 C.2       2 UNK         0.5004 
     61 O         -79.1524   22.1418  -74.7716 O.2       2 UNK        -0.5226 
     62 CA        -78.5598   22.4739  -72.4617 C.3       2 UNK         0.0269 
     63 CB        -77.4265   21.4575  -72.6936 C.3       2 UNK        -0.1926 
     64 N         -78.0062   23.6740  -71.8260 N.am      2 UNK        -0.4687 
     65 C         -78.6376   24.4249  -70.9127 C.2       1 UNK         0.5165 
     66 O         -79.7360   24.1307  -70.4394 O.2       1 UNK        -0.5079 
     67 H67       -73.6906   24.3263  -70.5374 H         1 UNK         0.0900 
     68 H68       -74.0109   25.9726  -71.0864 H         1 UNK         0.0900 
     69 H69       -73.6621   25.6644  -69.3845 H         1 UNK         0.0900 
     70 H70       -76.1769   26.5004  -71.3251 H         1 UNK         0.2959 
     71 H71       -78.1596   25.8728  -69.4362 H         1 UNK         0.1079 
     72 H72       -78.1878   27.8856  -70.8717 H         1 UNK         0.0837 
     73 H73       -79.6933   27.0153  -70.9386 H         1 UNK         0.0837 
     74 H74       -80.4823   28.3013  -72.7481 H         1 UNK         0.0685 
     75 H75       -80.2214   27.8893  -74.4184 H         1 UNK         0.0685 
     76 H76       -79.1388   29.4060  -75.8660 H         1 UNK         0.1434 
     77 H77       -77.3535   32.9877  -74.3139 H         1 UNK         0.1329 
     78 H78       -78.8026   29.9740  -71.6360 H         1 UNK         0.1335 
     79 H79       -78.1178   32.0845  -70.7430 H         1 UNK         0.0680 
     80 H80       -78.0838   33.4442  -71.8316 H         1 UNK         0.0680 
     81 H81       -76.2571   30.3966  -70.5274 H         1 UNK         0.1032 
     82 H82       -75.3179   31.3991  -69.4521 H         1 UNK         0.1032 
     83 H83       -73.3933   31.2690  -71.1293 H         1 UNK         0.0461 
     84 H84       -72.2927   27.8206  -69.9027 H         1 UNK         0.3453 
     85 H85       -72.7026   28.2772  -71.5395 H         1 UNK         0.3453 
     86 H86       -73.8188   30.5147  -73.1414 H         1 UNK         0.2984 
     87 H87       -76.0845   28.8160  -74.6409 H         1 UNK         0.0554 
     88 H88       -74.3884   30.5479  -75.0988 H         1 UNK         0.0847 
     89 H89       -74.1605   29.2304  -76.2195 H         1 UNK         0.0847 
     90 H90       -73.0725   29.3920  -74.8566 H         1 UNK         0.0847 
     91 H91       -75.5447   26.7082  -75.1278 H         1 UNK         0.3141 
     92 H92       -72.8960   24.5096  -74.1410 H         1 UNK         0.0743 
     93 H93       -74.9757   24.3354  -72.8267 H         1 UNK         0.0784 
     94 H94       -75.9590   24.6430  -74.2521 H         1 UNK         0.0784 
     95 H95       -74.9786   23.1836  -74.1467 H         1 UNK         0.0784 
     96 H96       -74.7658   24.8579  -76.4210 H         1 UNK         0.3213 
     97 H97       -72.0235   24.1779  -78.7023 H         1 UNK         0.0855 
     98 H98       -74.6088   22.7092  -77.9660 H         1 UNK         0.0814 
     99 H99       -72.9887   22.0302  -77.9099 H         1 UNK         0.0814 
    100 H100      -73.6841   22.5019  -79.4516 H         1 UNK         0.0814 
    101 H101      -74.7001   25.4723  -78.4230 H         1 UNK         0.3105 
    102 H102      -74.1203   27.5156  -81.1010 H         1 UNK         0.0547 
    103 H103      -76.0053   26.6240  -82.4624 H         1 UNK         0.0837 
    104 H104      -74.5642   25.6523  -82.6946 H         1 UNK         0.0837 
    105 H105      -75.8601   25.0536  -81.6702 H         1 UNK         0.0837 
    106 H106      -76.6122   26.6429  -79.9453 H         1 UNK         0.3020 
    107 H107      -76.3943   28.3380  -76.9205 H         1 UNK         0.1245 
    108 H108      -78.5308   29.5194  -78.0216 H         1 UNK         0.0781 
    109 H109      -77.5179   29.6792  -79.4146 H         1 UNK         0.0781 
    110 H110      -78.9957   31.6746  -77.2151 H         1 UNK         0.0836 
    111 H111      -77.8735   32.8662  -76.6332 H         1 UNK         0.0836 
    112 H112      -78.5748   27.1981  -78.4071 H         1 UNK         0.3022 
    113 H113      -79.0626   25.0422  -78.4396 H         1 UNK         0.0747 
    114 H114      -78.2943   22.7086  -78.4294 H         1 UNK         0.0793 
    115 H115      -76.9805   23.7324  -78.9861 H         1 UNK         0.0793 
    116 H116      -76.9639   23.0976  -77.3441 H         1 UNK         0.0793 
    117 H117      -78.9245   23.5223  -75.9868 H         1 UNK         0.3047 
    118 H118      -81.4295   25.3662  -74.2864 H         1 UNK         0.0822 
    119 H119      -82.6538   23.2125  -74.3667 H         1 UNK         0.0807 
    120 H120      -81.6480   22.6602  -75.7053 H         1 UNK         0.0807 
    121 H121      -82.7297   24.0268  -75.9207 H         1 UNK         0.0807 
    122 H122      -80.1158   24.4120  -72.8401 H         1 UNK         0.2946 
    123 H123      -79.2862   22.0077  -71.7920 H         1 UNK         0.1144 
    124 H124      -76.8863   21.2458  -71.7707 H         1 UNK         0.0793 
    125 H125      -76.7084   21.8126  -73.4314 H         1 UNK         0.0793 
    126 H126      -77.8233   20.5096  -73.0597 H         1 UNK         0.0793 
    127 H127      -77.1290   24.0192  -72.1864 H         1 UNK         0.2896 
@<TRIPOS>BOND
     1    1    2 1    
     2    1   67 1    
     3    1   68 1    
     4    1   69 1    
     5    2    3 2    
     6    2    4 am   BACKBONE|DICT|INTERRES
     7    4    5 1    
     8    4   70 1    
     9    5    6 1    
    10    5   65 1    
    11    5   71 1    
    12    6    7 1    
    13    6   72 1    
    14    6   73 1    
    15    7    8 1    
    16    8    9 1    
    17    8   74 1    
    18    8   75 1    
    19    9   10 ar   
    20    9   14 ar   
    21   10   11 ar   
    22   10   76 1    
    23   11   12 ar   
    24   11   48 1    
    25   12   13 ar   
    26   12   77 1    
    27   13   14 ar   
    28   13   15 1    
    29   14   78 1    
    30   15   16 1    
    31   15   79 1    
    32   15   80 1    
    33   16   17 1    
    34   17   18 1    
    35   17   81 1    
    36   17   82 1    
    37   18   19 1    
    38   18   22 1    
    39   18   83 1    
    40   19   20 am   BACKBONE|DICT|INTERRES
    41   19   21 2    
    42   20   84 1    
    43   20   85 1    
    44   22   23 am   BACKBONE|DICT|INTERRES
    45   22   86 1    
    46   23   24 2    
    47   23   25 1    
    48   25   26 1    
    49   25   27 1    
    50   25   87 1    
    51   26   88 1    
    52   26   89 1    
    53   26   90 1    
    54   27   28 am   BACKBONE|DICT|INTERRES
    55   27   91 1    
    56   28   29 2    
    57   28   30 1    
    58   30   31 1    
    59   30   32 1    
    60   30   92 1    
    61   31   93 1    
    62   31   94 1    
    63   31   95 1    
    64   32   33 am   BACKBONE|DICT|INTERRES
    65   32   96 1    
    66   33   34 2    
    67   33   35 1    
    68   35   36 1    
    69   35   37 1    
    70   35   97 1    
    71   36   98 1    
    72   36   99 1    
    73   36  100 1    
    74   37   38 am   BACKBONE|DICT|INTERRES
    75   37  101 1    
    76   38   39 2    
    77   38   40 1    
    78   40   41 1    
    79   40   42 1    
    80   40  102 1    
    81   41  103 1    
    82   41  104 1    
    83   41  105 1    
    84   42   43 am   BACKBONE|DICT|INTERRES
    85   42  106 1    
    86   43   44 2    
    87   43   45 1    
    88   45   46 1    
    89   45   49 1    
    90   45  107 1    
    91   46   47 1    
    92   46  108 1    
    93   46  109 1    
    94   47   48 1    
    95   48  110 1    
    96   48  111 1    
    97   49   50 am   BACKBONE|DICT|INTERRES
    98   49  112 1    
    99   50   51 2    
   100   50   52 1    
   101   52   53 1    
   102   52   54 1    
   103   52  113 1    
   104   53  114 1    
   105   53  115 1    
   106   53  116 1    
   107   54   55 am   BACKBONE|DICT|INTERRES
   108   54  117 1    
   109   55   56 2    
   110   55   57 1    
   111   57   58 1    
   112   57   59 1    
   113   57  118 1    
   114   58  119 1    
   115   58  120 1    
   116   58  121 1    
   117   59   60 am   BACKBONE|DICT|INTERRES
   118   59  122 1    
   119   60   61 2    
   120   60   62 1    
   121   62   63 1    
   122   62   64 1    
   123   62  123 1    
   124   63  124 1    
   125   63  125 1    
   126   63  126 1    
   127   64   65 am   BACKBONE|DICT|INTERRES
   128   64  127 1    
   129   65   66 2    
@<TRIPOS>SUBSTRUCTURE
     1 UNK         1 GROUP             0       ****    0 ROOT    
