@<TRIPOS>MOLECULE
3R135
127   129    1
SMALL
USER_CHARGES


@<TRIPOS>ATOM
      1 CA        -81.2256   21.9412  -72.8253 C.3       0 UNK        -0.1998 
      2 C         -81.6032   23.3990  -73.0370 C.2       0 UNK         0.4909 
      3 O         -82.3070   23.7162  -73.9965 O.2       0 UNK        -0.5240 
      4 N         -81.1287   24.2916  -72.1571 N.am      1 UNK        -0.4739 
      5 CA        -81.3320   25.7434  -72.2221 C.3       1 UNK         0.0864 
      6 C6        -80.7529   26.4338  -70.9632 C.3       11 UNK        -0.0881 
      7 S7        -81.3586   28.1418  -70.7596 S.3       11 UNK        -0.2682 
      8 C8        -79.9873   28.9076  -69.8334 C.3       11 UNK         0.0289 
      9 C9        -78.7135   29.0298  -70.6608 C.ar      11 UNK        -0.0687 
     10 C10       -78.6957   29.8281  -71.8080 C.ar      11 UNK        -0.0823 
     11 C11       -77.5316   29.9554  -72.5715 C.ar      11 UNK        -0.0830 
     12 C12       -76.3738   29.2809  -72.1698 C.ar      11 UNK        -0.1021 
     13 C13       -76.3724   28.4904  -71.0179 C.ar      11 UNK        -0.0753 
     14 C14       -77.5466   28.3656  -70.2685 C.ar      11 UNK        -0.0933 
     15 C15       -75.1035   27.7713  -70.5865 C.3       11 UNK         0.0166 
     16 S16       -73.9426   28.9136  -69.7638 S.3       11 UNK        -0.2615 
     17 C17       -72.5394   28.9349  -70.9311 C.3       11 UNK        -0.0865 
     18 CA        -72.6346   30.0867  -71.9736 C.3       10 UNK         0.0862 
     19 C         -71.7909   31.3265  -71.5658 C.2       10 UNK         0.5551 
     20 N         -72.2592   32.0921  -70.5902 N.am      10 UNK        -0.7319 
     21 O         -70.7089   31.5806  -72.0924 O.2       10 UNK        -0.5018 
     22 N         -72.3238   29.5828  -73.3158 N.am      10 UNK        -0.4509 
     23 C         -72.6082   30.1776  -74.4783 C.2       10 UNK         0.4899 
     24 O         -73.1955   31.2557  -74.5672 O.2       10 UNK        -0.4839 
     25 CA        -72.2012   29.4351  -75.7701 C.3       9 UNK         0.0222 
     26 CB        -70.8244   29.9108  -76.2733 C.3       9 UNK        -0.1966 
     27 N         -72.2756   27.9633  -75.6903 N.am      9 UNK        -0.4218 
     28 C         -71.5328   27.1283  -74.9461 C.2       9 UNK         0.5020 
     29 O         -70.6023   27.5011  -74.2304 O.2       9 UNK        -0.5274 
     30 CA        -71.9278   25.6450  -74.9015 C.3       8 UNK         0.0270 
     31 CB        -72.7352   25.3647  -73.6214 C.3       8 UNK        -0.1976 
     32 N         -72.6963   25.1768  -76.0553 N.am      8 UNK        -0.4313 
     33 C         -72.1672   24.8425  -77.2395 C.2       8 UNK         0.5041 
     34 O         -70.9865   25.0277  -77.5370 O.2       8 UNK        -0.5577 
     35 CA        -73.0979   24.1513  -78.2489 C.3       7 UNK         0.0284 
     36 CB        -73.3223   22.6821  -77.8528 C.3       7 UNK        -0.1958 
     37 N         -74.3921   24.8270  -78.3373 N.am      7 UNK        -0.4454 
     38 C         -74.7798   25.6017  -79.3595 C.2       7 UNK         0.5089 
     39 O         -74.1156   25.7700  -80.3831 O.2       7 UNK        -0.5125 
     40 CA        -76.1352   26.3279  -79.2283 C.3       6 UNK         0.0408 
     41 CB        -77.2363   25.5341  -79.9489 C.3       6 UNK        -0.1791 
     42 N         -76.5670   26.5921  -77.8524 N.am      6 UNK        -0.4762 
     43 C         -75.8641   27.2585  -76.9243 C.2       6 UNK         0.5007 
     44 O         -74.7481   27.7388  -77.1186 O.2       6 UNK        -0.5032 
     45 CA        -76.4863   27.3343  -75.5170 C.3       5 UNK         0.0783 
     46 C46       -77.5045   28.4997  -75.4399 C.3       11 UNK        -0.0857 
     47 S47       -76.6746   30.1134  -75.2510 S.3       11 UNK        -0.2512 
     48 C48       -77.5427   30.8359  -73.8180 C.3       11 UNK         0.0225 
     49 N         -77.0759   26.0609  -75.0809 N.am      5 UNK        -0.4615 
     50 C         -76.4843   24.8558  -75.0958 C.2       4 UNK         0.5053 
     51 O         -75.3353   24.6572  -75.4872 O.2       4 UNK        -0.5105 
     52 CA        -77.3405   23.6580  -74.6646 C.3       4 UNK         0.0263 
     53 CB        -77.4649   23.5791  -73.1340 C.3       4 UNK        -0.1981 
     54 N         -78.6633   23.7298  -75.2846 N.am      4 UNK        -0.4224 
     55 C         -78.9091   23.3938  -76.5604 C.2       3 UNK         0.4895 
     56 O         -78.0830   22.8563  -77.2979 O.2       3 UNK        -0.5091 
     57 CA        -80.2987   23.7359  -77.1251 C.3       3 UNK         0.0250 
     58 CB        -81.2369   22.5218  -77.0386 C.3       3 UNK        -0.1996 
     59 N         -80.9133   24.8898  -76.4618 N.am      3 UNK        -0.4254 
     60 C         -80.5007   26.1555  -76.6344 C.2       2 UNK         0.5004 
     61 O         -79.5868   26.4756  -77.3954 O.2       2 UNK        -0.5226 
     62 CA        -81.1841   27.2418  -75.7810 C.3       2 UNK         0.0269 
     63 CB        -82.4124   27.8053  -76.5120 C.3       2 UNK        -0.1926 
     64 N         -81.5785   26.7837  -74.4435 N.am      2 UNK        -0.4687 
     65 C         -80.7274   26.3067  -73.5245 C.2       1 UNK         0.5165 
     66 O         -79.5118   26.2310  -73.7045 O.2       1 UNK        -0.5079 
     67 H67       -80.6930   21.7903  -71.8865 H         1 UNK         0.0900 
     68 H68       -80.5860   21.5975  -73.6377 H         1 UNK         0.0900 
     69 H69       -82.1211   21.3205  -72.8096 H         1 UNK         0.0900 
     70 H70       -80.5433   23.9693  -71.3999 H         1 UNK         0.2959 
     71 H71       -82.4113   25.9108  -72.2369 H         1 UNK         0.1079 
     72 H72       -81.0470   25.8848  -70.0672 H         1 UNK         0.0837 
     73 H73       -79.6614   26.4160  -70.9802 H         1 UNK         0.0837 
     74 H74       -79.8093   28.3335  -68.9226 H         1 UNK         0.0685 
     75 H75       -80.2947   29.9036  -69.5119 H         1 UNK         0.0685 
     76 H76       -79.5970   30.3465  -72.1059 H         1 UNK         0.1434 
     77 H77       -75.4719   29.3699  -72.7573 H         1 UNK         0.1329 
     78 H78       -77.5497   27.7546  -69.3763 H         1 UNK         0.1335 
     79 H79       -74.6445   27.2987  -71.4556 H         1 UNK         0.0680 
     80 H80       -75.3425   26.9609  -69.8961 H         1 UNK         0.0680 
     81 H81       -71.6143   28.9952  -70.3538 H         1 UNK         0.1032 
     82 H82       -72.4864   27.9603  -71.4184 H         1 UNK         0.1032 
     83 H83       -73.6666   30.4353  -72.0239 H         1 UNK         0.0461 
     84 H84       -71.7271   32.8957  -70.2949 H         1 UNK         0.3453 
     85 H85       -73.1305   31.8694  -70.1339 H         1 UNK         0.3453 
     86 H86       -71.7336   28.7584  -73.3658 H         1 UNK         0.2984 
     87 H87       -72.9355   29.7172  -76.5261 H         1 UNK         0.0554 
     88 H88       -70.8282   30.9873  -76.4492 H         1 UNK         0.0847 
     89 H89       -70.5576   29.4292  -77.2139 H         1 UNK         0.0847 
     90 H90       -70.0313   29.7067  -75.5535 H         1 UNK         0.0847 
     91 H91       -73.0500   27.5676  -76.2181 H         1 UNK         0.3141 
     92 H92       -71.0035   25.0653  -74.8499 H         1 UNK         0.0743 
     93 H93       -72.1657   25.6341  -72.7308 H         1 UNK         0.0784 
     94 H94       -73.6660   25.9331  -73.5981 H         1 UNK         0.0784 
     95 H95       -72.9875   24.3076  -73.5344 H         1 UNK         0.0784 
     96 H96       -73.6815   24.9745  -75.8821 H         1 UNK         0.3213 
     97 H97       -72.5956   24.1611  -79.2188 H         1 UNK         0.0855 
     98 H98       -73.8347   22.5919  -76.8938 H         1 UNK         0.0814 
     99 H99       -72.3732   22.1509  -77.7682 H         1 UNK         0.0814 
    100 H100      -73.9202   22.1597  -78.5997 H         1 UNK         0.0814 
    101 H101      -74.9922   24.7706  -77.5221 H         1 UNK         0.3105 
    102 H102      -76.0321   27.2958  -79.7226 H         1 UNK         0.0547 
    103 H103      -76.9692   25.3499  -80.9904 H         1 UNK         0.0837 
    104 H104      -77.4057   24.5646  -79.4785 H         1 UNK         0.0837 
    105 H105      -78.1825   26.0758  -79.9487 H         1 UNK         0.0837 
    106 H106      -77.5001   26.2786  -77.6036 H         1 UNK         0.3020 
    107 H107      -75.6732   27.5343  -74.8158 H         1 UNK         0.1245 
    108 H108      -78.1773   28.3505  -74.5958 H         1 UNK         0.0781 
    109 H109      -78.1477   28.5353  -76.3209 H         1 UNK         0.0781 
    110 H110      -77.0773   31.7916  -73.5738 H         1 UNK         0.0836 
    111 H111      -78.5672   31.0597  -74.1197 H         1 UNK         0.0836 
    112 H112      -78.0110   26.1235  -74.6822 H         1 UNK         0.3022 
    113 H113      -76.8408   22.7482  -75.0049 H         1 UNK         0.0747 
    114 H114      -76.4819   23.4710  -72.6737 H         1 UNK         0.0793 
    115 H115      -78.0601   22.7184  -72.8295 H         1 UNK         0.0793 
    116 H116      -77.9222   24.4711  -72.7068 H         1 UNK         0.0793 
    117 H117      -79.3775   24.2267  -74.7705 H         1 UNK         0.3047 
    118 H118      -80.1680   23.9841  -78.1809 H         1 UNK         0.0822 
    119 H119      -80.8251   21.6735  -77.5871 H         1 UNK         0.0807 
    120 H120      -82.2132   22.7426  -77.4704 H         1 UNK         0.0807 
    121 H121      -81.3909   22.1973  -76.0098 H         1 UNK         0.0807 
    122 H122      -81.6402   24.6951  -75.7809 H         1 UNK         0.2946 
    123 H123      -80.4654   28.0528  -75.6511 H         1 UNK         0.1144 
    124 H124      -82.8503   28.6415  -75.9666 H         1 UNK         0.0793 
    125 H125      -83.1860   27.0482  -76.6462 H         1 UNK         0.0793 
    126 H126      -82.1413   28.1738  -77.5025 H         1 UNK         0.0793 
    127 H127      -82.5678   26.7817  -74.2394 H         1 UNK         0.2896 
@<TRIPOS>BOND
     1    1    2 1    
     2    1   67 1    
     3    1   68 1    
     4    1   69 1    
     5    2    3 2    
     6    2    4 am   BACKBONE|DICT|INTERRES
     7    4    5 1    
     8    4   70 1    
     9    5    6 1    
    10    5   65 1    
    11    5   71 1    
    12    6    7 1    
    13    6   72 1    
    14    6   73 1    
    15    7    8 1    
    16    8    9 1    
    17    8   74 1    
    18    8   75 1    
    19    9   10 ar   
    20    9   14 ar   
    21   10   11 ar   
    22   10   76 1    
    23   11   12 ar   
    24   11   48 1    
    25   12   13 ar   
    26   12   77 1    
    27   13   14 ar   
    28   13   15 1    
    29   14   78 1    
    30   15   16 1    
    31   15   79 1    
    32   15   80 1    
    33   16   17 1    
    34   17   18 1    
    35   17   81 1    
    36   17   82 1    
    37   18   19 1    
    38   18   22 1    
    39   18   83 1    
    40   19   20 am   BACKBONE|DICT|INTERRES
    41   19   21 2    
    42   20   84 1    
    43   20   85 1    
    44   22   23 am   BACKBONE|DICT|INTERRES
    45   22   86 1    
    46   23   24 2    
    47   23   25 1    
    48   25   26 1    
    49   25   27 1    
    50   25   87 1    
    51   26   88 1    
    52   26   89 1    
    53   26   90 1    
    54   27   28 am   BACKBONE|DICT|INTERRES
    55   27   91 1    
    56   28   29 2    
    57   28   30 1    
    58   30   31 1    
    59   30   32 1    
    60   30   92 1    
    61   31   93 1    
    62   31   94 1    
    63   31   95 1    
    64   32   33 am   BACKBONE|DICT|INTERRES
    65   32   96 1    
    66   33   34 2    
    67   33   35 1    
    68   35   36 1    
    69   35   37 1    
    70   35   97 1    
    71   36   98 1    
    72   36   99 1    
    73   36  100 1    
    74   37   38 am   BACKBONE|DICT|INTERRES
    75   37  101 1    
    76   38   39 2    
    77   38   40 1    
    78   40   41 1    
    79   40   42 1    
    80   40  102 1    
    81   41  103 1    
    82   41  104 1    
    83   41  105 1    
    84   42   43 am   BACKBONE|DICT|INTERRES
    85   42  106 1    
    86   43   44 2    
    87   43   45 1    
    88   45   46 1    
    89   45   49 1    
    90   45  107 1    
    91   46   47 1    
    92   46  108 1    
    93   46  109 1    
    94   47   48 1    
    95   48  110 1    
    96   48  111 1    
    97   49   50 am   BACKBONE|DICT|INTERRES
    98   49  112 1    
    99   50   51 2    
   100   50   52 1    
   101   52   53 1    
   102   52   54 1    
   103   52  113 1    
   104   53  114 1    
   105   53  115 1    
   106   53  116 1    
   107   54   55 am   BACKBONE|DICT|INTERRES
   108   54  117 1    
   109   55   56 2    
   110   55   57 1    
   111   57   58 1    
   112   57   59 1    
   113   57  118 1    
   114   58  119 1    
   115   58  120 1    
   116   58  121 1    
   117   59   60 am   BACKBONE|DICT|INTERRES
   118   59  122 1    
   119   60   61 2    
   120   60   62 1    
   121   62   63 1    
   122   62   64 1    
   123   62  123 1    
   124   63  124 1    
   125   63  125 1    
   126   63  126 1    
   127   64   65 am   BACKBONE|DICT|INTERRES
   128   64  127 1    
   129   65   66 2    
@<TRIPOS>SUBSTRUCTURE
     1 UNK         1 GROUP             0       ****    0 ROOT    
