@<TRIPOS>MOLECULE
3R135
127   129    1
SMALL
USER_CHARGES


@<TRIPOS>ATOM
      1 CA        -84.2917   28.6635  -74.2371 C.3       0 UNK        -0.1998 
      2 C         -83.4475   27.5959  -73.5575 C.2       0 UNK         0.4909 
      3 O         -83.9920   26.6021  -73.0770 O.2       0 UNK        -0.5240 
      4 N         -82.1209   27.7938  -73.5225 N.am      1 UNK        -0.4739 
      5 CA        -81.1215   26.8967  -72.9148 C.3       1 UNK         0.0864 
      6 C6        -81.3730   26.6486  -71.3985 C.3       11 UNK        -0.0881 
      7 S7        -79.8455   26.6239  -70.3965 S.3       11 UNK        -0.2682 
      8 C8        -79.7759   28.3242  -69.7407 C.3       11 UNK         0.0289 
      9 C9        -78.8246   29.1986  -70.5454 C.ar      11 UNK        -0.0687 
     10 C10       -79.2358   29.7773  -71.7490 C.ar      11 UNK        -0.0823 
     11 C11       -78.3577   30.5703  -72.4951 C.ar      11 UNK        -0.0830 
     12 C12       -77.0671   30.8070  -72.0106 C.ar      11 UNK        -0.1021 
     13 C13       -76.6487   30.2531  -70.7962 C.ar      11 UNK        -0.0753 
     14 C14       -77.5332   29.4467  -70.0717 C.ar      11 UNK        -0.0933 
     15 C15       -75.2583   30.5695  -70.2535 C.3       11 UNK         0.0166 
     16 S16       -74.3441   29.1006  -69.6764 S.3       11 UNK        -0.2615 
     17 C17       -74.0289   28.2277  -71.2463 C.3       11 UNK        -0.0865 
     18 CA        -72.6912   28.6377  -71.9217 C.3       10 UNK         0.0862 
     19 C         -71.4523   27.9238  -71.2941 C.2       10 UNK         0.5551 
     20 N         -70.6405   27.1902  -72.0469 N.am      10 UNK        -0.7319 
     21 O         -71.2060   28.0490  -70.0975 O.2       10 UNK        -0.5018 
     22 N         -72.7991   28.4973  -73.3801 N.am      10 UNK        -0.4509 
     23 C         -72.0624   29.1602  -74.2787 C.2       10 UNK         0.4899 
     24 O         -71.2595   30.0472  -73.9836 O.2       10 UNK        -0.4839 
     25 CA        -72.2516   28.7444  -75.7526 C.3       9 UNK         0.0222 
     26 CB        -71.1463   29.2973  -76.6769 C.3       9 UNK        -0.1966 
     27 N         -72.3925   27.2921  -75.9389 N.am      9 UNK        -0.4218 
     28 C         -71.5301   26.3399  -75.5471 C.2       9 UNK         0.5020 
     29 O         -70.4869   26.5710  -74.9345 O.2       9 UNK        -0.5274 
     30 CA        -71.8843   24.8759  -75.8628 C.3       8 UNK         0.0270 
     31 CB        -72.3238   24.1407  -74.5878 C.3       8 UNK        -0.1976 
     32 N         -72.9087   24.7212  -76.9019 N.am      8 UNK        -0.4313 
     33 C         -72.6544   24.8425  -78.2125 C.2       8 UNK         0.5041 
     34 O         -71.5548   25.1583  -78.6688 O.2       8 UNK        -0.5577 
     35 CA        -73.8091   24.5633  -79.1797 C.3       7 UNK         0.0284 
     36 CB        -74.1301   23.0589  -79.2396 C.3       7 UNK        -0.1958 
     37 N         -75.0103   25.3152  -78.8088 N.am      7 UNK        -0.4454 
     38 C         -75.5253   26.3092  -79.5446 C.2       7 UNK         0.5089 
     39 O         -75.0128   26.7343  -80.5810 O.2       7 UNK        -0.5125 
     40 CA        -76.8544   26.9231  -79.0787 C.3       6 UNK         0.0408 
     41 CB        -78.0387   26.1229  -79.6442 C.3       6 UNK        -0.1791 
     42 N         -76.9992   27.0395  -77.6274 N.am      6 UNK        -0.4762 
     43 C         -76.3472   27.9321  -76.8684 C.2       6 UNK         0.5007 
     44 O         -75.4295   28.6385  -77.2836 O.2       6 UNK        -0.5032 
     45 CA        -76.8083   28.0619  -75.4045 C.3       5 UNK         0.0783 
     46 C46       -78.1332   28.8595  -75.2896 C.3       11 UNK        -0.0857 
     47 S47       -77.8369   30.6592  -75.2472 S.3       11 UNK        -0.2512 
     48 C48       -78.8187   31.1977  -73.8061 C.3       11 UNK         0.0225 
     49 N         -76.9260   26.7390  -74.7965 N.am      5 UNK        -0.4615 
     50 C         -75.9392   26.1313  -74.1284 C.2       4 UNK         0.5053 
     51 O         -74.8355   26.6353  -73.9293 O.2       4 UNK        -0.5105 
     52 CA        -76.2164   24.7037  -73.6285 C.3       4 UNK         0.0263 
     53 CB        -76.8793   24.7447  -72.2439 C.3       4 UNK        -0.1981 
     54 N         -77.0372   23.9252  -74.5599 N.am      4 UNK        -0.4224 
     55 C         -76.6714   23.6343  -75.8181 C.2       3 UNK         0.4895 
     56 O         -75.5830   23.9500  -76.3017 O.2       3 UNK        -0.5091 
     57 CA        -77.7006   22.9249  -76.7157 C.3       3 UNK         0.0250 
     58 CB        -77.4653   21.4070  -76.6980 C.3       3 UNK        -0.1996 
     59 N         -79.1034   23.2075  -76.3868 N.am      3 UNK        -0.4254 
     60 C         -79.6627   24.4251  -76.3342 C.2       2 UNK         0.5004 
     61 O         -79.0367   25.4706  -76.5262 O.2       2 UNK        -0.5226 
     62 CA        -81.1591   24.5174  -75.9820 C.3       2 UNK         0.0269 
     63 CB        -81.8070   23.1788  -75.5577 C.3       2 UNK        -0.1926 
     64 N         -81.3852   25.5569  -74.9713 N.am      2 UNK        -0.4687 
     65 C         -80.8792   25.6011  -73.7277 C.2       1 UNK         0.5165 
     66 O         -80.2064   24.6909  -73.2417 O.2       1 UNK        -0.5079 
     67 H67       -84.8424   28.2313  -75.0722 H         1 UNK         0.0900 
     68 H68       -85.0123   29.0760  -73.5314 H         1 UNK         0.0900 
     69 H69       -83.6847   29.4840  -74.6193 H         1 UNK         0.0900 
     70 H70       -81.7462   28.6253  -73.9580 H         1 UNK         0.2959 
     71 H71       -80.1787   27.4337  -73.0070 H         1 UNK         0.1079 
     72 H72       -82.0330   27.4143  -70.9896 H         1 UNK         0.0837 
     73 H73       -81.9086   25.7104  -71.2406 H         1 UNK         0.0837 
     74 H74       -80.7678   28.7763  -69.7130 H         1 UNK         0.0685 
     75 H75       -79.4457   28.2748  -68.7019 H         1 UNK         0.0685 
     76 H76       -80.2441   29.6113  -72.0998 H         1 UNK         0.1434 
     77 H77       -76.3936   31.4349  -72.5781 H         1 UNK         0.1329 
     78 H78       -77.2161   29.0168  -69.1315 H         1 UNK         0.1335 
     79 H79       -74.6554   31.0831  -71.0042 H         1 UNK         0.0680 
     80 H80       -75.3642   31.2623  -69.4179 H         1 UNK         0.0680 
     81 H81       -74.0630   27.1508  -71.0714 H         1 UNK         0.1032 
     82 H82       -74.8698   28.4340  -71.9103 H         1 UNK         0.1032 
     83 H83       -72.5419   29.7020  -71.7299 H         1 UNK         0.0461 
     84 H84       -70.7807   27.0996  -73.0474 H         1 UNK         0.3453 
     85 H85       -69.8447   26.7480  -71.6161 H         1 UNK         0.3453 
     86 H86       -73.4406   27.7748  -73.7031 H         1 UNK         0.2984 
     87 H87       -73.1944   29.1906  -76.0673 H         1 UNK         0.0554 
     88 H88       -71.1108   30.3867  -76.6386 H         1 UNK         0.0847 
     89 H89       -71.3219   29.0169  -77.7155 H         1 UNK         0.0847 
     90 H90       -70.1602   28.9288  -76.3920 H         1 UNK         0.0847 
     91 H91       -73.2381   26.9902  -76.4014 H         1 UNK         0.3141 
     92 H92       -70.9696   24.3953  -76.2170 H         1 UNK         0.0743 
     93 H93       -73.1526   24.6480  -74.1006 H         1 UNK         0.0784 
     94 H94       -72.6267   23.1146  -74.7970 H         1 UNK         0.0784 
     95 H95       -71.5076   24.0987  -73.8653 H         1 UNK         0.0784 
     96 H96       -73.8402   24.4352  -76.6030 H         1 UNK         0.3213 
     97 H97       -73.4675   24.8563  -80.1750 H         1 UNK         0.0855 
     98 H98       -74.4538   22.6639  -78.2769 H         1 UNK         0.0814 
     99 H99       -73.2523   22.4876  -79.5444 H         1 UNK         0.0814 
    100 H100      -74.9171   22.8529  -79.9651 H         1 UNK         0.0814 
    101 H101      -75.4709   25.0411  -77.9474 H         1 UNK         0.3105 
    102 H102      -76.9094   27.9312  -79.4957 H         1 UNK         0.0547 
    103 H103      -77.9838   26.0592  -80.7318 H         1 UNK         0.0837 
    104 H104      -78.0597   25.1035  -79.2590 H         1 UNK         0.0837 
    105 H105      -78.9902   26.5930  -79.3955 H         1 UNK         0.0837 
    106 H106      -77.7416   26.4836  -77.2032 H         1 UNK         0.3020 
    107 H107      -76.0334   28.6174  -74.8697 H         1 UNK         0.1245 
    108 H108      -78.6484   28.5796  -74.3720 H         1 UNK         0.0781 
    109 H109      -78.8299   28.6228  -76.0966 H         1 UNK         0.0781 
    110 H110      -79.8705   30.9788  -73.9965 H         1 UNK         0.0836 
    111 H111      -78.7464   32.2827  -73.7202 H         1 UNK         0.0836 
    112 H112      -77.7713   26.2202  -75.0007 H         1 UNK         0.3022 
    113 H113      -75.2625   24.1864  -73.5262 H         1 UNK         0.0747 
    114 H114      -77.0659   23.7422  -71.8589 H         1 UNK         0.0793 
    115 H115      -76.2409   25.2565  -71.5224 H         1 UNK         0.0793 
    116 H116      -77.8291   25.2785  -72.2668 H         1 UNK         0.0793 
    117 H117      -77.9610   23.6594  -74.2462 H         1 UNK         0.3047 
    118 H118      -77.5304   23.2797  -77.7337 H         1 UNK         0.0822 
    119 H119      -78.1073   20.8964  -77.4161 H         1 UNK         0.0807 
    120 H120      -77.6553   20.9798  -75.7125 H         1 UNK         0.0807 
    121 H121      -76.4341   21.1683  -76.9634 H         1 UNK         0.0807 
    122 H122      -79.6898   22.4082  -76.1943 H         1 UNK         0.2946 
    123 H123      -81.6582   24.8542  -76.8921 H         1 UNK         0.1144 
    124 H124      -82.8586   23.3194  -75.3069 H         1 UNK         0.0793 
    125 H125      -81.3203   22.7389  -74.6865 H         1 UNK         0.0793 
    126 H126      -81.7719   22.4468  -76.3656 H         1 UNK         0.0793 
    127 H127      -81.9010   26.3663  -75.2858 H         1 UNK         0.2896 
@<TRIPOS>BOND
     1    1    2 1    
     2    1   67 1    
     3    1   68 1    
     4    1   69 1    
     5    2    3 2    
     6    2    4 am   BACKBONE|DICT|INTERRES
     7    4    5 1    
     8    4   70 1    
     9    5    6 1    
    10    5   65 1    
    11    5   71 1    
    12    6    7 1    
    13    6   72 1    
    14    6   73 1    
    15    7    8 1    
    16    8    9 1    
    17    8   74 1    
    18    8   75 1    
    19    9   10 ar   
    20    9   14 ar   
    21   10   11 ar   
    22   10   76 1    
    23   11   12 ar   
    24   11   48 1    
    25   12   13 ar   
    26   12   77 1    
    27   13   14 ar   
    28   13   15 1    
    29   14   78 1    
    30   15   16 1    
    31   15   79 1    
    32   15   80 1    
    33   16   17 1    
    34   17   18 1    
    35   17   81 1    
    36   17   82 1    
    37   18   19 1    
    38   18   22 1    
    39   18   83 1    
    40   19   20 am   BACKBONE|DICT|INTERRES
    41   19   21 2    
    42   20   84 1    
    43   20   85 1    
    44   22   23 am   BACKBONE|DICT|INTERRES
    45   22   86 1    
    46   23   24 2    
    47   23   25 1    
    48   25   26 1    
    49   25   27 1    
    50   25   87 1    
    51   26   88 1    
    52   26   89 1    
    53   26   90 1    
    54   27   28 am   BACKBONE|DICT|INTERRES
    55   27   91 1    
    56   28   29 2    
    57   28   30 1    
    58   30   31 1    
    59   30   32 1    
    60   30   92 1    
    61   31   93 1    
    62   31   94 1    
    63   31   95 1    
    64   32   33 am   BACKBONE|DICT|INTERRES
    65   32   96 1    
    66   33   34 2    
    67   33   35 1    
    68   35   36 1    
    69   35   37 1    
    70   35   97 1    
    71   36   98 1    
    72   36   99 1    
    73   36  100 1    
    74   37   38 am   BACKBONE|DICT|INTERRES
    75   37  101 1    
    76   38   39 2    
    77   38   40 1    
    78   40   41 1    
    79   40   42 1    
    80   40  102 1    
    81   41  103 1    
    82   41  104 1    
    83   41  105 1    
    84   42   43 am   BACKBONE|DICT|INTERRES
    85   42  106 1    
    86   43   44 2    
    87   43   45 1    
    88   45   46 1    
    89   45   49 1    
    90   45  107 1    
    91   46   47 1    
    92   46  108 1    
    93   46  109 1    
    94   47   48 1    
    95   48  110 1    
    96   48  111 1    
    97   49   50 am   BACKBONE|DICT|INTERRES
    98   49  112 1    
    99   50   51 2    
   100   50   52 1    
   101   52   53 1    
   102   52   54 1    
   103   52  113 1    
   104   53  114 1    
   105   53  115 1    
   106   53  116 1    
   107   54   55 am   BACKBONE|DICT|INTERRES
   108   54  117 1    
   109   55   56 2    
   110   55   57 1    
   111   57   58 1    
   112   57   59 1    
   113   57  118 1    
   114   58  119 1    
   115   58  120 1    
   116   58  121 1    
   117   59   60 am   BACKBONE|DICT|INTERRES
   118   59  122 1    
   119   60   61 2    
   120   60   62 1    
   121   62   63 1    
   122   62   64 1    
   123   62  123 1    
   124   63  124 1    
   125   63  125 1    
   126   63  126 1    
   127   64   65 am   BACKBONE|DICT|INTERRES
   128   64  127 1    
   129   65   66 2    
@<TRIPOS>SUBSTRUCTURE
     1 UNK         1 GROUP             0       ****    0 ROOT    
