@<TRIPOS>MOLECULE
3R135
127   129    1
SMALL
USER_CHARGES


@<TRIPOS>ATOM
      1 CA        -83.3705   27.4943  -70.5216 C.3       0 UNK        -0.1998 
      2 C         -83.6239   27.6278  -72.0157 C.2       0 UNK         0.4909 
      3 O         -84.7152   27.3042  -72.4850 O.2       0 UNK        -0.5240 
      4 N         -82.6214   28.1015  -72.7667 N.am      1 UNK        -0.4739 
      5 CA        -82.6684   28.2682  -74.2260 C.3       1 UNK         0.0864 
      6 C6        -81.6122   29.2933  -74.7187 C.3       11 UNK        -0.0881 
      7 S7        -79.8859   28.8096  -74.3648 S.3       11 UNK        -0.2682 
      8 C8        -79.5171   29.8092  -72.8929 C.3       11 UNK         0.0289 
      9 C9        -78.3382   29.2300  -72.1280 C.ar      11 UNK        -0.0687 
     10 C10       -78.4768   28.0118  -71.4569 C.ar      11 UNK        -0.0823 
     11 C11       -77.4091   27.4712  -70.7364 C.ar      11 UNK        -0.0830 
     12 C12       -76.1987   28.1687  -70.6731 C.ar      11 UNK        -0.1021 
     13 C13       -76.0486   29.3894  -71.3385 C.ar      11 UNK        -0.0753 
     14 C14       -77.1191   29.9113  -72.0723 C.ar      11 UNK        -0.0933 
     15 C15       -74.7417   30.1603  -71.2430 C.3       11 UNK         0.0166 
     16 S16       -73.4724   29.4737  -72.3491 S.3       11 UNK        -0.2615 
     17 C17       -72.3279   30.8942  -72.4506 C.3       11 UNK        -0.0865 
     18 CA        -72.5315   31.6907  -73.7719 C.3       10 UNK         0.0862 
     19 C         -71.8464   33.0931  -73.7625 C.2       10 UNK         0.5551 
     20 N         -71.4562   33.6387  -74.9080 N.am      10 UNK        -0.7319 
     21 O         -71.6977   33.7135  -72.7123 O.2       10 UNK        -0.5018 
     22 N         -72.2619   30.8598  -74.9609 N.am      10 UNK        -0.4509 
     23 C         -71.0629   30.4125  -75.3565 C.2       10 UNK         0.4899 
     24 O         -69.9951   30.7169  -74.8222 O.2       10 UNK        -0.4839 
     25 CA        -71.0881   29.4303  -76.5372 C.3       9 UNK         0.0222 
     26 CB        -69.7921   29.4582  -77.3755 C.3       9 UNK        -0.1966 
     27 N         -71.4117   28.0742  -76.0804 N.am      9 UNK        -0.4218 
     28 C         -70.6814   27.2671  -75.2891 C.2       9 UNK         0.5020 
     29 O         -69.5698   27.5544  -74.8432 O.2       9 UNK        -0.5274 
     30 CA        -71.2724   25.8879  -74.9267 C.3       8 UNK         0.0270 
     31 CB        -71.6880   25.8565  -73.4466 C.3       8 UNK        -0.1976 
     32 N         -72.4121   25.4955  -75.7611 N.am      8 UNK        -0.4313 
     33 C         -72.3236   25.1762  -77.0623 C.2       8 UNK         0.5041 
     34 O         -71.2501   25.0495  -77.6531 O.2       8 UNK        -0.5577 
     35 CA        -73.6299   24.9984  -77.8637 C.3       7 UNK         0.0284 
     36 CB        -73.8631   23.5114  -78.1786 C.3       7 UNK        -0.1958 
     37 N         -74.8337   25.5467  -77.2307 N.am      7 UNK        -0.4454 
     38 C         -75.0255   26.8154  -76.8386 C.2       7 UNK         0.5089 
     39 O         -74.2068   27.7199  -77.0114 O.2       7 UNK        -0.5125 
     40 CA        -76.3222   27.1018  -76.0579 C.3       6 UNK         0.0408 
     41 CB        -77.4474   27.4675  -77.0371 C.3       6 UNK        -0.1791 
     42 N         -76.7532   25.9854  -75.2037 N.am      6 UNK        -0.4762 
     43 C         -76.0091   25.4098  -74.2429 C.2       6 UNK         0.5007 
     44 O         -74.8615   25.7607  -73.9707 O.2       6 UNK        -0.5032 
     45 CA        -76.6069   24.1814  -73.5328 C.3       5 UNK         0.0783 
     46 C46       -77.5653   24.5614  -72.3761 C.3       11 UNK        -0.0857 
     47 S47       -76.6516   24.7984  -70.8133 S.3       11 UNK        -0.2512 
     48 C48       -77.5733   26.1453  -70.0089 C.3       11 UNK         0.0225 
     49 N         -77.2428   23.2987  -74.5121 N.am      5 UNK        -0.4615 
     50 C         -76.5956   22.3353  -75.1833 C.2       4 UNK         0.5053 
     51 O         -75.4183   22.0367  -74.9842 O.2       4 UNK        -0.5105 
     52 CA        -77.3805   21.5705  -76.2647 C.3       4 UNK         0.0263 
     53 CB        -77.9510   20.2645  -75.6890 C.3       4 UNK        -0.1981 
     54 N         -78.4672   22.3479  -76.8633 N.am      4 UNK        -0.4224 
     55 C         -78.2984   23.4456  -77.6136 C.2       3 UNK         0.4895 
     56 O         -77.1995   23.9090  -77.9160 O.2       3 UNK        -0.5091 
     57 CA        -79.5760   24.1798  -78.0548 C.3       3 UNK         0.0250 
     58 CB        -80.0984   23.6007  -79.3790 C.3       3 UNK        -0.1996 
     59 N         -80.6500   24.1664  -77.0534 N.am      3 UNK        -0.4254 
     60 C         -80.5424   24.6400  -75.8039 C.2       2 UNK         0.5004 
     61 O         -79.4958   25.0797  -75.3206 O.2       2 UNK        -0.5226 
     62 CA        -81.7982   24.5689  -74.9250 C.3       2 UNK         0.0269 
     63 CB        -81.6123   23.5308  -73.8059 C.3       2 UNK        -0.1926 
     64 N         -82.0700   25.8748  -74.3289 N.am      2 UNK        -0.4687 
     65 C         -82.5712   26.9278  -74.9916 C.2       1 UNK         0.5165 
     66 O         -82.9527   26.8726  -76.1622 O.2       1 UNK        -0.5079 
     67 H67       -82.3693   27.8247  -70.2454 H         1 UNK         0.0900 
     68 H68       -83.4816   26.4549  -70.2140 H         1 UNK         0.0900 
     69 H69       -84.0903   28.0933  -69.9645 H         1 UNK         0.0900 
     70 H70       -81.7457   28.3503  -72.3322 H         1 UNK         0.2959 
     71 H71       -83.6500   28.6785  -74.4745 H         1 UNK         0.1079 
     72 H72       -81.7068   29.4416  -75.7962 H         1 UNK         0.0837 
     73 H73       -81.8115   30.2709  -74.2769 H         1 UNK         0.0837 
     74 H74       -79.3201   30.8373  -73.2004 H         1 UNK         0.0685 
     75 H75       -80.3842   29.8448  -72.2327 H         1 UNK         0.0685 
     76 H76       -79.4175   27.4812  -71.5038 H         1 UNK         0.1434 
     77 H77       -75.3709   27.7587  -70.1105 H         1 UNK         0.1329 
     78 H78       -77.0070   30.8548  -72.5887 H         1 UNK         0.1335 
     79 H79       -74.9119   31.2094  -71.4909 H         1 UNK         0.0680 
     80 H80       -74.3731   30.1423  -70.2163 H         1 UNK         0.0680 
     81 H81       -71.3026   30.5283  -72.3775 H         1 UNK         0.1032 
     82 H82       -72.4773   31.5300  -71.5761 H         1 UNK         0.1032 
     83 H83       -73.5937   31.9309  -73.8326 H         1 UNK         0.0461 
     84 H84       -71.0239   34.5491  -74.9013 H         1 UNK         0.3453 
     85 H85       -71.5784   33.1422  -75.7759 H         1 UNK         0.3453 
     86 H86       -73.0803   30.5507  -75.4655 H         1 UNK         0.2984 
     87 H87       -71.9030   29.7307  -77.1980 H         1 UNK         0.0554 
     88 H88       -69.8514   28.7698  -78.2185 H         1 UNK         0.0847 
     89 H89       -68.9127   29.1923  -76.7886 H         1 UNK         0.0847 
     90 H90       -69.6167   30.4552  -77.7811 H         1 UNK         0.0847 
     91 H91       -72.3335   27.7477  -76.3582 H         1 UNK         0.3141 
     92 H92       -70.4821   25.1482  -75.0713 H         1 UNK         0.0743 
     93 H93       -72.4405   26.6143  -73.2248 H         1 UNK         0.0784 
     94 H94       -72.0959   24.8854  -73.1657 H         1 UNK         0.0784 
     95 H95       -70.8335   26.0504  -72.7970 H         1 UNK         0.0784 
     96 H96       -73.3298   25.5726  -75.3316 H         1 UNK         0.3213 
     97 H97       -73.4947   25.5306  -78.8073 H         1 UNK         0.0855 
     98 H98       -74.0616   22.9356  -77.2740 H         1 UNK         0.0814 
     99 H99       -72.9906   23.0697  -78.6620 H         1 UNK         0.0814 
    100 H100      -74.7066   23.3756  -78.8555 H         1 UNK         0.0814 
    101 H101      -75.6091   24.9016  -77.1133 H         1 UNK         0.3105 
    102 H102      -76.1420   27.9557  -75.4017 H         1 UNK         0.0547 
    103 H103      -77.2258   28.4054  -77.5474 H         1 UNK         0.0837 
    104 H104      -77.5741   26.7047  -77.8047 H         1 UNK         0.0837 
    105 H105      -78.4028   27.5901  -76.5296 H         1 UNK         0.0837 
    106 H106      -77.7045   25.6499  -75.3408 H         1 UNK         0.3020 
    107 H107      -75.7645   23.6367  -73.0986 H         1 UNK         0.1245 
    108 H108      -78.2798   23.7562  -72.1981 H         1 UNK         0.0781 
    109 H109      -78.1654   25.4388  -72.6232 H         1 UNK         0.0781 
    110 H110      -77.2138   26.2537  -68.9846 H         1 UNK         0.0836 
    111 H111      -78.6254   25.8658  -69.9328 H         1 UNK         0.0836 
    112 H112      -78.1896   23.5391  -74.7790 H         1 UNK         0.3022 
    113 H113      -76.6756   21.3164  -77.0595 H         1 UNK         0.0747 
    114 H114      -78.4377   19.6686  -76.4614 H         1 UNK         0.0793 
    115 H115      -77.1591   19.6491  -75.2594 H         1 UNK         0.0793 
    116 H116      -78.6799   20.4545  -74.9000 H         1 UNK         0.0793 
    117 H117      -79.4095   22.0434  -76.6673 H         1 UNK         0.3047 
    118 H118      -79.3105   25.2239  -78.2258 H         1 UNK         0.0822 
    119 H119      -80.9403   24.1786  -79.7609 H         1 UNK         0.0807 
    120 H120      -80.4231   22.5651  -79.2691 H         1 UNK         0.0807 
    121 H121      -79.3223   23.6192  -80.1457 H         1 UNK         0.0807 
    122 H122      -81.5457   23.8178  -77.3644 H         1 UNK         0.2946 
    123 H123      -82.6563   24.2764  -75.5347 H         1 UNK         0.1144 
    124 H124      -82.5050   23.4541  -73.1849 H         1 UNK         0.0793 
    125 H125      -80.7729   23.7813  -73.1555 H         1 UNK         0.0793 
    126 H126      -81.4202   22.5398  -74.2192 H         1 UNK         0.0793 
    127 H127      -81.7472   26.0214  -73.3847 H         1 UNK         0.2896 
@<TRIPOS>BOND
     1    1    2 1    
     2    1   67 1    
     3    1   68 1    
     4    1   69 1    
     5    2    3 2    
     6    2    4 am   BACKBONE|DICT|INTERRES
     7    4    5 1    
     8    4   70 1    
     9    5    6 1    
    10    5   65 1    
    11    5   71 1    
    12    6    7 1    
    13    6   72 1    
    14    6   73 1    
    15    7    8 1    
    16    8    9 1    
    17    8   74 1    
    18    8   75 1    
    19    9   10 ar   
    20    9   14 ar   
    21   10   11 ar   
    22   10   76 1    
    23   11   12 ar   
    24   11   48 1    
    25   12   13 ar   
    26   12   77 1    
    27   13   14 ar   
    28   13   15 1    
    29   14   78 1    
    30   15   16 1    
    31   15   79 1    
    32   15   80 1    
    33   16   17 1    
    34   17   18 1    
    35   17   81 1    
    36   17   82 1    
    37   18   19 1    
    38   18   22 1    
    39   18   83 1    
    40   19   20 am   BACKBONE|DICT|INTERRES
    41   19   21 2    
    42   20   84 1    
    43   20   85 1    
    44   22   23 am   BACKBONE|DICT|INTERRES
    45   22   86 1    
    46   23   24 2    
    47   23   25 1    
    48   25   26 1    
    49   25   27 1    
    50   25   87 1    
    51   26   88 1    
    52   26   89 1    
    53   26   90 1    
    54   27   28 am   BACKBONE|DICT|INTERRES
    55   27   91 1    
    56   28   29 2    
    57   28   30 1    
    58   30   31 1    
    59   30   32 1    
    60   30   92 1    
    61   31   93 1    
    62   31   94 1    
    63   31   95 1    
    64   32   33 am   BACKBONE|DICT|INTERRES
    65   32   96 1    
    66   33   34 2    
    67   33   35 1    
    68   35   36 1    
    69   35   37 1    
    70   35   97 1    
    71   36   98 1    
    72   36   99 1    
    73   36  100 1    
    74   37   38 am   BACKBONE|DICT|INTERRES
    75   37  101 1    
    76   38   39 2    
    77   38   40 1    
    78   40   41 1    
    79   40   42 1    
    80   40  102 1    
    81   41  103 1    
    82   41  104 1    
    83   41  105 1    
    84   42   43 am   BACKBONE|DICT|INTERRES
    85   42  106 1    
    86   43   44 2    
    87   43   45 1    
    88   45   46 1    
    89   45   49 1    
    90   45  107 1    
    91   46   47 1    
    92   46  108 1    
    93   46  109 1    
    94   47   48 1    
    95   48  110 1    
    96   48  111 1    
    97   49   50 am   BACKBONE|DICT|INTERRES
    98   49  112 1    
    99   50   51 2    
   100   50   52 1    
   101   52   53 1    
   102   52   54 1    
   103   52  113 1    
   104   53  114 1    
   105   53  115 1    
   106   53  116 1    
   107   54   55 am   BACKBONE|DICT|INTERRES
   108   54  117 1    
   109   55   56 2    
   110   55   57 1    
   111   57   58 1    
   112   57   59 1    
   113   57  118 1    
   114   58  119 1    
   115   58  120 1    
   116   58  121 1    
   117   59   60 am   BACKBONE|DICT|INTERRES
   118   59  122 1    
   119   60   61 2    
   120   60   62 1    
   121   62   63 1    
   122   62   64 1    
   123   62  123 1    
   124   63  124 1    
   125   63  125 1    
   126   63  126 1    
   127   64   65 am   BACKBONE|DICT|INTERRES
   128   64  127 1    
   129   65   66 2    
@<TRIPOS>SUBSTRUCTURE
     1 UNK         1 GROUP             0       ****    0 ROOT    
