@<TRIPOS>MOLECULE
3R135
127   129    1
SMALL
USER_CHARGES


@<TRIPOS>ATOM
      1 CA        -81.7997   22.4587  -71.8266 C.3       0 UNK        -0.1998 
      2 C         -82.0258   23.7007  -72.6758 C.2       0 UNK         0.4909 
      3 O         -82.3236   23.5845  -73.8656 O.2       0 UNK        -0.5240 
      4 N         -81.8930   24.8892  -72.0733 N.am      1 UNK        -0.4739 
      5 CA        -82.0245   26.1839  -72.7480 C.3       1 UNK         0.0864 
      6 C6        -82.3569   27.3274  -71.7483 C.3       11 UNK        -0.0881 
      7 S7        -81.0860   27.6193  -70.4688 S.3       11 UNK        -0.2682 
      8 C8        -80.2264   29.0954  -71.1307 C.3       11 UNK         0.0289 
      9 C9        -78.7217   29.1367  -70.8617 C.ar      11 UNK        -0.0687 
     10 C10       -77.9807   27.9754  -70.6127 C.ar      11 UNK        -0.0823 
     11 C11       -76.5987   28.0349  -70.4261 C.ar      11 UNK        -0.0830 
     12 C12       -75.9454   29.2664  -70.4814 C.ar      11 UNK        -0.1021 
     13 C13       -76.6638   30.4324  -70.7517 C.ar      11 UNK        -0.0753 
     14 C14       -78.0501   30.3630  -70.9320 C.ar      11 UNK        -0.0933 
     15 C15       -75.9373   31.7628  -70.8677 C.3       11 UNK         0.0166 
     16 S16       -75.5830   32.1876  -72.6028 S.3       11 UNK        -0.2615 
     17 C17       -74.2349   31.0239  -73.0483 C.3       11 UNK        -0.0865 
     18 CA        -74.5562   29.8536  -74.0438 C.3       10 UNK         0.0862 
     19 C         -75.7703   30.0914  -74.9927 C.2       10 UNK         0.5551 
     20 N         -75.5812   30.6837  -76.1646 N.am      10 UNK        -0.7319 
     21 O         -76.8893   29.7037  -74.6735 O.2       10 UNK        -0.5018 
     22 N         -73.3596   29.3470  -74.7487 N.am      10 UNK        -0.4509 
     23 C         -72.5533   30.0250  -75.5798 C.2       10 UNK         0.4899 
     24 O         -72.7009   31.2209  -75.8346 O.2       10 UNK        -0.4839 
     25 CA        -71.4316   29.2610  -76.3131 C.3       9 UNK         0.0222 
     26 CB        -70.0900   30.0236  -76.2743 C.3       9 UNK        -0.1966 
     27 N         -71.2617   27.8552  -75.9248 N.am      9 UNK        -0.4218 
     28 C         -70.7862   27.3565  -74.7716 C.2       9 UNK         0.5020 
     29 O         -70.4147   28.0554  -73.8280 O.2       9 UNK        -0.5274 
     30 CA        -70.7221   25.8197  -74.6445 C.3       8 UNK         0.0270 
     31 CB        -71.1006   25.3506  -73.2272 C.3       8 UNK        -0.1976 
     32 N         -71.6194   25.1743  -75.6044 N.am      8 UNK        -0.4313 
     33 C         -71.2541   24.4381  -76.6625 C.2       8 UNK         0.5041 
     34 O         -70.0876   24.1340  -76.9139 O.2       8 UNK        -0.5577 
     35 CA        -72.3720   23.9782  -77.6234 C.3       7 UNK         0.0284 
     36 CB        -72.7706   22.5245  -77.3229 C.3       7 UNK        -0.1958 
     37 N         -73.5740   24.8191  -77.5865 N.am      7 UNK        -0.4454 
     38 C         -73.6179   26.1179  -77.9212 C.2       7 UNK         0.5089 
     39 O         -72.6588   26.7320  -78.3877 O.2       7 UNK        -0.5125 
     40 CA        -74.9154   26.8865  -77.5994 C.3       6 UNK         0.0408 
     41 CB        -75.8140   26.9494  -78.8437 C.3       6 UNK        -0.1791 
     42 N         -75.6711   26.3416  -76.4610 N.am      6 UNK        -0.4762 
     43 C         -75.1703   26.1405  -75.2317 C.2       6 UNK         0.5007 
     44 O         -74.0314   26.4887  -74.9204 O.2       6 UNK        -0.5032 
     45 CA        -76.0133   25.3650  -74.1967 C.3       5 UNK         0.0783 
     46 C46       -76.3544   26.2160  -72.9538 C.3       11 UNK        -0.0857 
     47 S47       -74.9604   26.2837  -71.7714 S.3       11 UNK        -0.2512 
     48 C48       -75.8042   26.7558  -70.2320 C.3       11 UNK         0.0225 
     49 N         -77.1966   24.6980  -74.7501 N.am      5 UNK        -0.4615 
     50 C         -77.1388   23.5895  -75.5029 C.2       4 UNK         0.5053 
     51 O         -76.0878   23.1066  -75.9261 O.2       4 UNK        -0.5105 
     52 CA        -78.4718   22.8999  -75.8224 C.3       4 UNK         0.0263 
     53 CB        -79.0419   22.2156  -74.5696 C.3       4 UNK        -0.1981 
     54 N         -79.4449   23.8547  -76.3458 N.am      4 UNK        -0.4224 
     55 C         -79.5218   24.2179  -77.6337 C.2       3 UNK         0.4895 
     56 O         -78.8469   23.7160  -78.5331 O.2       3 UNK        -0.5091 
     57 CA        -80.5045   25.3518  -77.9772 C.3       3 UNK         0.0250 
     58 CB        -81.9017   24.7840  -78.2744 C.3       3 UNK        -0.1996 
     59 N         -80.6056   26.3692  -76.9269 N.am      3 UNK        -0.4254 
     60 C         -79.5859   27.1275  -76.4969 C.2       2 UNK         0.5004 
     61 O         -78.4531   27.0749  -76.9678 O.2       2 UNK        -0.5226 
     62 CA        -79.8623   28.0674  -75.3142 C.3       2 UNK         0.0269 
     63 CB        -80.2138   29.4787  -75.8087 C.3       2 UNK        -0.1926 
     64 N         -80.9210   27.5812  -74.4259 N.am      2 UNK        -0.4687 
     65 C         -80.8045   26.4983  -73.6450 C.2       1 UNK         0.5165 
     66 O         -79.7969   25.7810  -73.6303 O.2       1 UNK        -0.5079 
     67 H67       -81.0189   21.8383  -72.2648 H         1 UNK         0.0900 
     68 H68       -82.7143   21.8687  -71.7758 H         1 UNK         0.0900 
     69 H69       -81.5007   22.7103  -70.8092 H         1 UNK         0.0900 
     70 H70       -81.6103   24.9346  -71.1046 H         1 UNK         0.2959 
     71 H71       -82.8774   26.1018  -73.4262 H         1 UNK         0.1079 
     72 H72       -82.5711   28.2595  -72.2737 H         1 UNK         0.0837 
     73 H73       -83.2854   27.0831  -71.2296 H         1 UNK         0.0837 
     74 H74       -80.3647   29.1564  -72.2096 H         1 UNK         0.0685 
     75 H75       -80.7024   29.9818  -70.7088 H         1 UNK         0.0685 
     76 H76       -78.4663   27.0104  -70.5964 H         1 UNK         0.1434 
     77 H77       -74.8727   29.3082  -70.3521 H         1 UNK         0.1329 
     78 H78       -78.6030   31.2660  -71.1525 H         1 UNK         0.1335 
     79 H79       -76.5529   32.5516  -70.4328 H         1 UNK         0.0680 
     80 H80       -75.0093   31.7515  -70.2939 H         1 UNK         0.0680 
     81 H81       -73.7981   30.6087  -72.1399 H         1 UNK         0.1032 
     82 H82       -73.4493   31.6582  -73.4565 H         1 UNK         0.1032 
     83 H83       -74.8639   29.0146  -73.4181 H         1 UNK         0.0461 
     84 H84       -76.3610   30.8299  -76.7843 H         1 UNK         0.3453 
     85 H85       -74.6600   31.0325  -76.3962 H         1 UNK         0.3453 
     86 H86       -73.2241   28.3445  -74.6720 H         1 UNK         0.2984 
     87 H87       -71.7465   29.2266  -77.3569 H         1 UNK         0.0554 
     88 H88       -69.3135   29.4915  -76.8236 H         1 UNK         0.0847 
     89 H89       -69.7371   30.1753  -75.2539 H         1 UNK         0.0847 
     90 H90       -70.1866   31.0099  -76.7298 H         1 UNK         0.0847 
     91 H91       -71.5519   27.1928  -76.6356 H         1 UNK         0.3141 
     92 H92       -69.6874   25.5295  -74.8365 H         1 UNK         0.0743 
     93 H93       -72.1070   25.6712  -72.9544 H         1 UNK         0.0784 
     94 H94       -71.0614   24.2644  -73.1457 H         1 UNK         0.0784 
     95 H95       -70.4151   25.7546  -72.4812 H         1 UNK         0.0784 
     96 H96       -72.6014   25.4139  -75.4860 H         1 UNK         0.3213 
     97 H97       -71.9673   24.0226  -78.6368 H         1 UNK         0.0855 
     98 H98       -73.2078   22.4237  -76.3285 H         1 UNK         0.0814 
     99 H99       -71.9036   21.8638  -77.3673 H         1 UNK         0.0814 
    100 H100      -73.4967   22.1536  -78.0465 H         1 UNK         0.0814 
    101 H101      -74.4107   24.3987  -77.2012 H         1 UNK         0.3105 
    102 H102      -74.6271   27.9064  -77.3371 H         1 UNK         0.0547 
    103 H103      -75.2503   27.2662  -79.7224 H         1 UNK         0.0837 
    104 H104      -76.2597   25.9801  -79.0708 H         1 UNK         0.0837 
    105 H105      -76.6212   27.6690  -78.7114 H         1 UNK         0.0837 
    106 H106      -76.6515   26.1365  -76.6267 H         1 UNK         0.3020 
    107 H107      -75.3600   24.5569  -73.8573 H         1 UNK         0.1245 
    108 H108      -77.2033   25.7765  -72.4275 H         1 UNK         0.0781 
    109 H109      -76.6625   27.2264  -73.2306 H         1 UNK         0.0781 
    110 H110      -75.0632   26.8954  -69.4436 H         1 UNK         0.0836 
    111 H111      -76.4505   25.9389  -69.9069 H         1 UNK         0.0836 
    112 H112      -78.0989   25.0455  -74.4393 H         1 UNK         0.3022 
    113 H113      -78.2836   22.1266  -76.5706 H         1 UNK         0.0747 
    114 H114      -79.9769   21.7005  -74.7912 H         1 UNK         0.0793 
    115 H115      -78.3452   21.4721  -74.1803 H         1 UNK         0.0793 
    116 H116      -79.2364   22.9309  -73.7696 H         1 UNK         0.0793 
    117 H117      -80.0305   24.3276  -75.6706 H         1 UNK         0.3047 
    118 H118      -80.1335   25.8444  -78.8787 H         1 UNK         0.0822 
    119 H119      -82.5863   25.5651  -78.6056 H         1 UNK         0.0807 
    120 H120      -82.3378   24.3029  -77.3976 H         1 UNK         0.0807 
    121 H121      -81.8578   24.0366  -79.0680 H         1 UNK         0.0807 
    122 H122      -81.5044   26.4809  -76.4815 H         1 UNK         0.2946 
    123 H123      -78.9403   28.1267  -74.7315 H         1 UNK         0.1144 
    124 H124      -81.1395   29.4901  -76.3852 H         1 UNK         0.0793 
    125 H125      -79.4225   29.8706  -76.4497 H         1 UNK         0.0793 
    126 H126      -80.3227   30.1736  -74.9758 H         1 UNK         0.0793 
    127 H127      -81.7736   28.1221  -74.4010 H         1 UNK         0.2896 
@<TRIPOS>BOND
     1    1    2 1    
     2    1   67 1    
     3    1   68 1    
     4    1   69 1    
     5    2    3 2    
     6    2    4 am   BACKBONE|DICT|INTERRES
     7    4    5 1    
     8    4   70 1    
     9    5    6 1    
    10    5   65 1    
    11    5   71 1    
    12    6    7 1    
    13    6   72 1    
    14    6   73 1    
    15    7    8 1    
    16    8    9 1    
    17    8   74 1    
    18    8   75 1    
    19    9   10 ar   
    20    9   14 ar   
    21   10   11 ar   
    22   10   76 1    
    23   11   12 ar   
    24   11   48 1    
    25   12   13 ar   
    26   12   77 1    
    27   13   14 ar   
    28   13   15 1    
    29   14   78 1    
    30   15   16 1    
    31   15   79 1    
    32   15   80 1    
    33   16   17 1    
    34   17   18 1    
    35   17   81 1    
    36   17   82 1    
    37   18   19 1    
    38   18   22 1    
    39   18   83 1    
    40   19   20 am   BACKBONE|DICT|INTERRES
    41   19   21 2    
    42   20   84 1    
    43   20   85 1    
    44   22   23 am   BACKBONE|DICT|INTERRES
    45   22   86 1    
    46   23   24 2    
    47   23   25 1    
    48   25   26 1    
    49   25   27 1    
    50   25   87 1    
    51   26   88 1    
    52   26   89 1    
    53   26   90 1    
    54   27   28 am   BACKBONE|DICT|INTERRES
    55   27   91 1    
    56   28   29 2    
    57   28   30 1    
    58   30   31 1    
    59   30   32 1    
    60   30   92 1    
    61   31   93 1    
    62   31   94 1    
    63   31   95 1    
    64   32   33 am   BACKBONE|DICT|INTERRES
    65   32   96 1    
    66   33   34 2    
    67   33   35 1    
    68   35   36 1    
    69   35   37 1    
    70   35   97 1    
    71   36   98 1    
    72   36   99 1    
    73   36  100 1    
    74   37   38 am   BACKBONE|DICT|INTERRES
    75   37  101 1    
    76   38   39 2    
    77   38   40 1    
    78   40   41 1    
    79   40   42 1    
    80   40  102 1    
    81   41  103 1    
    82   41  104 1    
    83   41  105 1    
    84   42   43 am   BACKBONE|DICT|INTERRES
    85   42  106 1    
    86   43   44 2    
    87   43   45 1    
    88   45   46 1    
    89   45   49 1    
    90   45  107 1    
    91   46   47 1    
    92   46  108 1    
    93   46  109 1    
    94   47   48 1    
    95   48  110 1    
    96   48  111 1    
    97   49   50 am   BACKBONE|DICT|INTERRES
    98   49  112 1    
    99   50   51 2    
   100   50   52 1    
   101   52   53 1    
   102   52   54 1    
   103   52  113 1    
   104   53  114 1    
   105   53  115 1    
   106   53  116 1    
   107   54   55 am   BACKBONE|DICT|INTERRES
   108   54  117 1    
   109   55   56 2    
   110   55   57 1    
   111   57   58 1    
   112   57   59 1    
   113   57  118 1    
   114   58  119 1    
   115   58  120 1    
   116   58  121 1    
   117   59   60 am   BACKBONE|DICT|INTERRES
   118   59  122 1    
   119   60   61 2    
   120   60   62 1    
   121   62   63 1    
   122   62   64 1    
   123   62  123 1    
   124   63  124 1    
   125   63  125 1    
   126   63  126 1    
   127   64   65 am   BACKBONE|DICT|INTERRES
   128   64  127 1    
   129   65   66 2    
@<TRIPOS>SUBSTRUCTURE
     1 UNK         1 GROUP             0       ****    0 ROOT    
