@<TRIPOS>MOLECULE
3R135
127   129    1
SMALL
USER_CHARGES


@<TRIPOS>ATOM
      1 CA        -85.0128   30.0136  -75.7997 C.3       0 UNK        -0.1998 
      2 C         -83.5520   30.0365  -76.2237 C.2       0 UNK         0.4909 
      3 O         -83.2488   30.4075  -77.3580 O.2       0 UNK        -0.5240 
      4 N         -82.6442   29.6441  -75.3206 N.am      1 UNK        -0.4739 
      5 CA        -81.1968   29.5662  -75.5613 C.3       1 UNK         0.0864 
      6 C6        -80.3946   29.5565  -74.2336 C.3       11 UNK        -0.0881 
      7 S7        -80.8823   28.2186  -73.0872 S.3       11 UNK        -0.2682 
      8 C8        -80.1967   28.8192  -71.5115 C.3       11 UNK         0.0289 
      9 C9        -78.8321   28.2163  -71.2052 C.ar      11 UNK        -0.0687 
     10 C10       -78.7513   26.9092  -70.7162 C.ar      11 UNK        -0.0823 
     11 C11       -77.5208   26.3622  -70.3433 C.ar      11 UNK        -0.0830 
     12 C12       -76.3615   27.1316  -70.4684 C.ar      11 UNK        -0.1021 
     13 C13       -76.4235   28.4370  -70.9675 C.ar      11 UNK        -0.0753 
     14 C14       -77.6620   28.9721  -71.3438 C.ar      11 UNK        -0.0933 
     15 C15       -75.1574   29.2818  -71.0363 C.3       11 UNK         0.0166 
     16 S16       -73.9344   28.5804  -72.1849 S.3       11 UNK        -0.2615 
     17 C17       -72.4976   29.6723  -71.9066 C.3       11 UNK        -0.0865 
     18 CA        -72.3572   30.7870  -72.9761 C.3       10 UNK         0.0862 
     19 C         -71.0886   31.6394  -72.6955 C.2       10 UNK         0.5551 
     20 N         -71.2391   32.7766  -72.0306 N.am      10 UNK        -0.7319 
     21 O         -69.9704   31.2519  -73.0286 O.2       10 UNK        -0.5018 
     22 N         -72.4029   30.2235  -74.3325 N.am      10 UNK        -0.4509 
     23 C         -72.3273   30.8938  -75.4889 C.2       10 UNK         0.4899 
     24 O         -72.1907   32.1154  -75.5690 O.2       10 UNK        -0.4839 
     25 CA        -72.4967   30.0652  -76.7777 C.3       9 UNK         0.0222 
     26 CB        -71.6600   30.6073  -77.9568 C.3       9 UNK        -0.1966 
     27 N         -72.3067   28.6203  -76.5838 N.am      9 UNK        -0.4218 
     28 C         -71.1598   27.9578  -76.3542 C.2       9 UNK         0.5020 
     29 O         -70.0568   28.5016  -76.2928 O.2       9 UNK        -0.5274 
     30 CA        -71.2395   26.4314  -76.1297 C.3       8 UNK         0.0270 
     31 CB        -70.8581   26.0863  -74.6800 C.3       8 UNK        -0.1976 
     32 N         -72.5549   25.8551  -76.4272 N.am      8 UNK        -0.4313 
     33 C         -73.0670   25.7132  -77.6603 C.2       8 UNK         0.5041 
     34 O         -72.4203   25.9224  -78.6874 O.2       8 UNK        -0.5577 
     35 CA        -74.5542   25.3191  -77.7880 C.3       7 UNK         0.0284 
     36 CB        -74.6892   23.8601  -78.2518 C.3       7 UNK        -0.1958 
     37 N         -75.3495   25.5116  -76.5706 N.am      7 UNK        -0.4454 
     38 C         -75.5163   26.6668  -75.9108 C.2       7 UNK         0.5089 
     39 O         -75.0536   27.7427  -76.2910 O.2       7 UNK        -0.5125 
     40 CA        -76.2616   26.5989  -74.5675 C.3       6 UNK         0.0408 
     41 CB        -77.7426   26.9326  -74.7596 C.3       6 UNK        -0.1791 
     42 N         -76.1289   25.3140  -73.8720 N.am      6 UNK        -0.4762 
     43 C         -74.9737   24.7778  -73.4501 C.2       6 UNK         0.5007 
     44 O         -73.8704   25.2857  -73.6504 O.2       6 UNK        -0.5032 
     45 CA        -75.0621   23.4125  -72.7417 C.3       5 UNK         0.0783 
     46 C46       -75.5234   23.5355  -71.2659 C.3       11 UNK        -0.0857 
     47 S47       -77.3349   23.6887  -71.0494 S.3       11 UNK        -0.2512 
     48 C48       -77.4615   24.9605  -69.7566 C.3       11 UNK         0.0225 
     49 N         -75.8855   22.4731  -73.5050 N.am      5 UNK        -0.4615 
     50 C         -75.5268   21.8934  -74.6564 C.2       4 UNK         0.5053 
     51 O         -74.4018   21.9816  -75.1463 O.2       4 UNK        -0.5105 
     52 CA        -76.6190   21.1010  -75.3984 C.3       4 UNK         0.0263 
     53 CB        -76.6064   19.6274  -74.9617 C.3       4 UNK        -0.1981 
     54 N         -77.9677   21.6554  -75.2171 N.am      4 UNK        -0.4224 
     55 C         -78.3474   22.8674  -75.6436 C.2       3 UNK         0.4895 
     56 O         -77.6026   23.6459  -76.2456 O.2       3 UNK        -0.5091 
     57 CA        -79.7785   23.3029  -75.3071 C.3       3 UNK         0.0250 
     58 CB        -79.8793   23.7339  -73.8285 C.3       3 UNK        -0.1996 
     59 N         -80.1249   24.4104  -76.1941 N.am      3 UNK        -0.4254 
     60 C         -81.3299   24.9640  -76.3545 C.2       2 UNK         0.5004 
     61 O         -82.3455   24.6028  -75.7557 O.2       2 UNK        -0.5226 
     62 CA        -81.4122   26.1381  -77.3361 C.3       2 UNK         0.0269 
     63 CB        -82.5650   25.9555  -78.3394 C.3       2 UNK        -0.1926 
     64 N         -81.6384   27.3552  -76.5625 N.am      2 UNK        -0.4687 
     65 C         -80.7972   28.3952  -76.4884 C.2       1 UNK         0.5165 
     66 O         -79.7431   28.4639  -77.1217 O.2       1 UNK        -0.5079 
     67 H67       -85.4415   31.0124  -75.8771 H         1 UNK         0.0900 
     68 H68       -85.1338   29.6715  -74.7720 H         1 UNK         0.0900 
     69 H69       -85.5810   29.3472  -76.4482 H         1 UNK         0.0900 
     70 H70       -82.9429   29.3478  -74.4014 H         1 UNK         0.2959 
     71 H71       -80.9109   30.4738  -76.0983 H         1 UNK         0.1079 
     72 H72       -79.3218   29.4986  -74.4205 H         1 UNK         0.0837 
     73 H73       -80.5482   30.5124  -73.7306 H         1 UNK         0.0837 
     74 H74       -80.1496   29.9089  -71.5053 H         1 UNK         0.0685 
     75 H75       -80.8890   28.5492  -70.7126 H         1 UNK         0.0685 
     76 H76       -79.6543   26.3240  -70.6057 H         1 UNK         0.1434 
     77 H77       -75.4075   26.7224  -70.1659 H         1 UNK         0.1329 
     78 H78       -77.7208   29.9870  -71.7122 H         1 UNK         0.1335 
     79 H79       -75.3864   30.3035  -71.3433 H         1 UNK         0.0680 
     80 H80       -74.7232   29.3446  -70.0375 H         1 UNK         0.0680 
     81 H81       -72.5611   30.1070  -70.9071 H         1 UNK         0.1032 
     82 H82       -71.6055   29.0425  -71.8999 H         1 UNK         0.1032 
     83 H83       -73.2277   31.4406  -72.8920 H         1 UNK         0.0461 
     84 H84       -70.4253   33.3344  -71.8233 H         1 UNK         0.3453 
     85 H85       -72.1511   33.0975  -71.7443 H         1 UNK         0.3453 
     86 H86       -72.5361   29.2247  -74.3766 H         1 UNK         0.2984 
     87 H87       -73.5458   30.1763  -77.0556 H         1 UNK         0.0554 
     88 H88       -71.7940   30.0003  -78.8521 H         1 UNK         0.0847 
     89 H89       -70.5955   30.6337  -77.7232 H         1 UNK         0.0847 
     90 H90       -71.9575   31.6256  -78.2101 H         1 UNK         0.0847 
     91 H91       -73.1744   28.0888  -76.5724 H         1 UNK         0.3141 
     92 H92       -70.5080   25.9671  -76.7944 H         1 UNK         0.0743 
     93 H93       -69.8431   26.4158  -74.4536 H         1 UNK         0.0784 
     94 H94       -71.5230   26.5692  -73.9624 H         1 UNK         0.0784 
     95 H95       -70.8964   25.0114  -74.5021 H         1 UNK         0.0784 
     96 H96       -73.1439   25.6446  -75.6272 H         1 UNK         0.3213 
     97 H97       -74.9877   25.9624  -78.5563 H         1 UNK         0.0855 
     98 H98       -74.2623   23.1673  -77.5268 H         1 UNK         0.0814 
     99 H99       -74.1697   23.7014  -79.1978 H         1 UNK         0.0814 
    100 H100      -75.7329   23.5849  -78.4058 H         1 UNK         0.0814 
    101 H101      -75.8446   24.6986  -76.2180 H         1 UNK         0.3105 
    102 H102      -75.8346   27.3635  -73.9194 H         1 UNK         0.0547 
    103 H103      -78.2405   26.2134  -75.4064 H         1 UNK         0.0837 
    104 H104      -78.2700   26.9600  -73.8071 H         1 UNK         0.0837 
    105 H105      -77.8511   27.9124  -75.2234 H         1 UNK         0.0837 
    106 H106      -76.9830   24.8188  -73.6665 H         1 UNK         0.3020 
    107 H107      -74.0434   23.0166  -72.7262 H         1 UNK         0.1245 
    108 H108      -75.0102   24.3618  -70.7709 H         1 UNK         0.0781 
    109 H109      -75.2155   22.6402  -70.7237 H         1 UNK         0.0781 
    110 H110      -76.6325   24.8682  -69.0532 H         1 UNK         0.0836 
    111 H111      -78.3652   24.7722  -69.1750 H         1 UNK         0.0836 
    112 H112      -76.8224   22.3300  -73.1579 H         1 UNK         0.3022 
    113 H113      -76.3832   21.1439  -76.4641 H         1 UNK         0.0747 
    114 H114      -77.3130   19.0347  -75.5431 H         1 UNK         0.0793 
    115 H115      -75.6194   19.1861  -75.1082 H         1 UNK         0.0793 
    116 H116      -76.8600   19.5151  -73.9067 H         1 UNK         0.0793 
    117 H117      -78.6362   21.0750  -74.7303 H         1 UNK         0.3047 
    118 H118      -80.4566   22.4695  -75.5016 H         1 UNK         0.0822 
    119 H119      -79.5880   22.9243  -73.1587 H         1 UNK         0.0807 
    120 H120      -80.8979   24.0122  -73.5592 H         1 UNK         0.0807 
    121 H121      -79.2380   24.5875  -73.6087 H         1 UNK         0.0807 
    122 H122      -79.3351   24.7429  -76.7352 H         1 UNK         0.2946 
    123 H123      -80.4782   26.1995  -77.8999 H         1 UNK         0.1144 
    124 H124      -82.4377   25.0387  -78.9166 H         1 UNK         0.0793 
    125 H125      -82.6045   26.7830  -79.0480 H         1 UNK         0.0793 
    126 H126      -83.5340   25.8973  -77.8418 H         1 UNK         0.0793 
    127 H127      -82.4550   27.3576  -75.9673 H         1 UNK         0.2896 
@<TRIPOS>BOND
     1    1    2 1    
     2    1   67 1    
     3    1   68 1    
     4    1   69 1    
     5    2    3 2    
     6    2    4 am   BACKBONE|DICT|INTERRES
     7    4    5 1    
     8    4   70 1    
     9    5    6 1    
    10    5   65 1    
    11    5   71 1    
    12    6    7 1    
    13    6   72 1    
    14    6   73 1    
    15    7    8 1    
    16    8    9 1    
    17    8   74 1    
    18    8   75 1    
    19    9   10 ar   
    20    9   14 ar   
    21   10   11 ar   
    22   10   76 1    
    23   11   12 ar   
    24   11   48 1    
    25   12   13 ar   
    26   12   77 1    
    27   13   14 ar   
    28   13   15 1    
    29   14   78 1    
    30   15   16 1    
    31   15   79 1    
    32   15   80 1    
    33   16   17 1    
    34   17   18 1    
    35   17   81 1    
    36   17   82 1    
    37   18   19 1    
    38   18   22 1    
    39   18   83 1    
    40   19   20 am   BACKBONE|DICT|INTERRES
    41   19   21 2    
    42   20   84 1    
    43   20   85 1    
    44   22   23 am   BACKBONE|DICT|INTERRES
    45   22   86 1    
    46   23   24 2    
    47   23   25 1    
    48   25   26 1    
    49   25   27 1    
    50   25   87 1    
    51   26   88 1    
    52   26   89 1    
    53   26   90 1    
    54   27   28 am   BACKBONE|DICT|INTERRES
    55   27   91 1    
    56   28   29 2    
    57   28   30 1    
    58   30   31 1    
    59   30   32 1    
    60   30   92 1    
    61   31   93 1    
    62   31   94 1    
    63   31   95 1    
    64   32   33 am   BACKBONE|DICT|INTERRES
    65   32   96 1    
    66   33   34 2    
    67   33   35 1    
    68   35   36 1    
    69   35   37 1    
    70   35   97 1    
    71   36   98 1    
    72   36   99 1    
    73   36  100 1    
    74   37   38 am   BACKBONE|DICT|INTERRES
    75   37  101 1    
    76   38   39 2    
    77   38   40 1    
    78   40   41 1    
    79   40   42 1    
    80   40  102 1    
    81   41  103 1    
    82   41  104 1    
    83   41  105 1    
    84   42   43 am   BACKBONE|DICT|INTERRES
    85   42  106 1    
    86   43   44 2    
    87   43   45 1    
    88   45   46 1    
    89   45   49 1    
    90   45  107 1    
    91   46   47 1    
    92   46  108 1    
    93   46  109 1    
    94   47   48 1    
    95   48  110 1    
    96   48  111 1    
    97   49   50 am   BACKBONE|DICT|INTERRES
    98   49  112 1    
    99   50   51 2    
   100   50   52 1    
   101   52   53 1    
   102   52   54 1    
   103   52  113 1    
   104   53  114 1    
   105   53  115 1    
   106   53  116 1    
   107   54   55 am   BACKBONE|DICT|INTERRES
   108   54  117 1    
   109   55   56 2    
   110   55   57 1    
   111   57   58 1    
   112   57   59 1    
   113   57  118 1    
   114   58  119 1    
   115   58  120 1    
   116   58  121 1    
   117   59   60 am   BACKBONE|DICT|INTERRES
   118   59  122 1    
   119   60   61 2    
   120   60   62 1    
   121   62   63 1    
   122   62   64 1    
   123   62  123 1    
   124   63  124 1    
   125   63  125 1    
   126   63  126 1    
   127   64   65 am   BACKBONE|DICT|INTERRES
   128   64  127 1    
   129   65   66 2    
@<TRIPOS>SUBSTRUCTURE
     1 UNK         1 GROUP             0       ****    0 ROOT    
