@<TRIPOS>MOLECULE
3R135
127   129    1
SMALL
USER_CHARGES


@<TRIPOS>ATOM
      1 CA        -80.2117   29.5340  -76.7084 C.3       0 UNK        -0.1998 
      2 C         -80.3137   28.4641  -75.6326 C.2       0 UNK         0.4909 
      3 O         -79.9073   27.3253  -75.8654 O.2       0 UNK        -0.5240 
      4 N         -80.8516   28.8204  -74.4577 N.am      1 UNK        -0.4739 
      5 CA        -81.0355   27.9381  -73.2987 C.3       1 UNK         0.0864 
      6 C6        -81.6389   28.6847  -72.0806 C.3       11 UNK        -0.0881 
      7 S7        -80.7031   30.1750  -71.5863 S.3       11 UNK        -0.2682 
      8 C8        -79.9028   29.6494  -70.0362 C.3       11 UNK         0.0289 
      9 C9        -78.5961   28.9195  -70.3050 C.ar      11 UNK        -0.0687 
     10 C10       -78.5839   27.5341  -70.4844 C.ar      11 UNK        -0.0823 
     11 C11       -77.3873   26.8675  -70.7615 C.ar      11 UNK        -0.0830 
     12 C12       -76.1950   27.5942  -70.8367 C.ar      11 UNK        -0.1021 
     13 C13       -76.1876   28.9790  -70.6434 C.ar      11 UNK        -0.0753 
     14 C14       -77.3953   29.6339  -70.3725 C.ar      11 UNK        -0.0933 
     15 C15       -74.8594   29.7312  -70.6904 C.3       11 UNK         0.0166 
     16 S16       -74.9514   31.3579  -71.5110 S.3       11 UNK        -0.2615 
     17 C17       -73.1885   31.8437  -71.4898 C.3       11 UNK        -0.0865 
     18 CA        -72.6074   32.1010  -72.9060 C.3       10 UNK         0.0862 
     19 C         -71.1218   32.5600  -72.8232 C.2       10 UNK         0.5551 
     20 N         -70.1677   31.8401  -73.4007 N.am      10 UNK        -0.7319 
     21 O         -70.8322   33.5935  -72.2252 O.2       10 UNK        -0.5018 
     22 N         -72.8582   30.9698  -73.8135 N.am      10 UNK        -0.4509 
     23 C         -72.8718   31.0300  -75.1473 C.2       10 UNK         0.4899 
     24 O         -72.6002   32.0479  -75.7866 O.2       10 UNK        -0.4839 
     25 CA        -73.2742   29.7355  -75.8840 C.3       9 UNK         0.0222 
     26 CB        -73.4920   29.9743  -77.3906 C.3       9 UNK        -0.1966 
     27 N         -72.3196   28.6347  -75.7159 N.am      9 UNK        -0.4218 
     28 C         -72.0810   27.9452  -74.5907 C.2       9 UNK         0.5020 
     29 O         -72.5957   28.2013  -73.4998 O.2       9 UNK        -0.5274 
     30 CA        -71.1533   26.7315  -74.7410 C.3       8 UNK         0.0270 
     31 CB        -70.8773   26.0068  -73.4093 C.3       8 UNK        -0.1976 
     32 N         -71.7728   25.8050  -75.6854 N.am      8 UNK        -0.4313 
     33 C         -71.1289   25.0820  -76.6110 C.2       8 UNK         0.5041 
     34 O         -69.9039   25.0817  -76.7415 O.2       8 UNK        -0.5577 
     35 CA        -71.9787   24.2110  -77.5616 C.3       7 UNK         0.0284 
     36 CB        -71.9509   22.7418  -77.1097 C.3       7 UNK        -0.1958 
     37 N         -73.3739   24.6439  -77.6776 N.am      7 UNK        -0.4454 
     38 C         -73.7796   25.8047  -78.2122 C.2       7 UNK         0.5089 
     39 O         -73.0241   26.5910  -78.7833 O.2       7 UNK        -0.5125 
     40 CA        -75.2675   26.1784  -78.0472 C.3       6 UNK         0.0408 
     41 CB        -76.0244   25.9506  -79.3641 C.3       6 UNK        -0.1791 
     42 N         -75.9706   25.4867  -76.9575 N.am      6 UNK        -0.4762 
     43 C         -75.6120   25.4941  -75.6615 C.2       6 UNK         0.5007 
     44 O         -74.6096   26.0718  -75.2459 O.2       6 UNK        -0.5032 
     45 CA        -76.4825   24.7165  -74.6526 C.3       5 UNK         0.0783 
     46 C46       -77.2995   25.7148  -73.8006 C.3       11 UNK        -0.0857 
     47 S47       -78.2819   24.8964  -72.4994 S.3       11 UNK        -0.2512 
     48 C48       -77.3819   25.3620  -70.9867 C.3       11 UNK         0.0225 
     49 N         -77.3454   23.7147  -75.2815 N.am      5 UNK        -0.4615 
     50 C         -76.9514   22.6363  -75.9716 C.2       4 UNK         0.5053 
     51 O         -75.7731   22.3103  -76.1178 O.2       4 UNK        -0.5105 
     52 CA        -78.0648   21.8101  -76.6466 C.3       4 UNK         0.0263 
     53 CB        -78.3740   20.5519  -75.8205 C.3       4 UNK        -0.1981 
     54 N         -79.3066   22.5685  -76.8473 N.am      4 UNK        -0.4224 
     55 C         -79.4372   23.6593  -77.6149 C.2       3 UNK         0.4895 
     56 O         -78.5369   24.0940  -78.3326 O.2       3 UNK        -0.5091 
     57 CA        -80.7525   24.4469  -77.5010 C.3       3 UNK         0.0250 
     58 CB        -81.8576   23.8433  -78.3898 C.3       3 UNK        -0.1996 
     59 N         -81.1966   24.6541  -76.1119 N.am      3 UNK        -0.4254 
     60 C         -81.6929   23.7592  -75.2415 C.2       2 UNK         0.5004 
     61 O         -81.8416   22.5676  -75.5167 O.2       2 UNK        -0.5226 
     62 CA        -82.0335   24.2431  -73.8160 C.3       2 UNK         0.0269 
     63 CB        -81.6504   23.1909  -72.7581 C.3       2 UNK        -0.1926 
     64 N         -81.3822   25.5109  -73.4717 N.am      2 UNK        -0.4687 
     65 C         -81.9152   26.7230  -73.6650 C.2       1 UNK         0.5165 
     66 O         -83.0422   26.9070  -74.1301 O.2       1 UNK        -0.5079 
     67 H67       -80.7787   29.2337  -77.5890 H         1 UNK         0.0900 
     68 H68       -80.5968   30.4944  -76.3664 H         1 UNK         0.0900 
     69 H69       -79.1713   29.6699  -77.0025 H         1 UNK         0.0900 
     70 H70       -81.1690   29.7700  -74.3250 H         1 UNK         0.2959 
     71 H71       -80.0431   27.5780  -73.0195 H         1 UNK         0.1079 
     72 H72       -82.6587   29.0058  -72.3030 H         1 UNK         0.0837 
     73 H73       -81.7230   28.0100  -71.2268 H         1 UNK         0.0837 
     74 H74       -79.7086   30.5355  -69.4299 H         1 UNK         0.0685 
     75 H75       -80.5799   29.0282  -69.4482 H         1 UNK         0.0685 
     76 H76       -79.5070   26.9741  -70.4258 H         1 UNK         0.1434 
     77 H77       -75.2669   27.0794  -71.0463 H         1 UNK         0.1329 
     78 H78       -77.4044   30.7040  -70.2176 H         1 UNK         0.1335 
     79 H79       -74.1102   29.1303  -71.2092 H         1 UNK         0.0680 
     80 H80       -74.5004   29.8675  -69.6696 H         1 UNK         0.0680 
     81 H81       -73.1032   32.7440  -70.8781 H         1 UNK         0.1032 
     82 H82       -72.6006   31.0801  -70.9770 H         1 UNK         0.1032 
     83 H83       -73.1498   32.9547  -73.3173 H         1 UNK         0.0461 
     84 H84       -69.2098   32.1484  -73.3441 H         1 UNK         0.3453 
     85 H85       -70.4020   30.9976  -73.8999 H         1 UNK         0.3453 
     86 H86       -73.0136   30.0619  -73.3836 H         1 UNK         0.2984 
     87 H87       -74.2280   29.4114  -75.4619 H         1 UNK         0.0554 
     88 H88       -74.2351   30.7548  -77.5597 H         1 UNK         0.0847 
     89 H89       -73.8517   29.0776  -77.8921 H         1 UNK         0.0847 
     90 H90       -72.5726   30.2866  -77.8877 H         1 UNK         0.0847 
     91 H91       -71.8443   28.3345  -76.5554 H         1 UNK         0.3141 
     92 H92       -70.2056   27.0995  -75.1400 H         1 UNK         0.0743 
     93 H93       -70.4258   26.6834  -72.6826 H         1 UNK         0.0784 
     94 H94       -71.7948   25.6150  -72.9680 H         1 UNK         0.0784 
     95 H95       -70.1895   25.1726  -73.5480 H         1 UNK         0.0784 
     96 H96       -72.7915   25.7821  -75.6522 H         1 UNK         0.3213 
     97 H97       -71.5249   24.2754  -78.5529 H         1 UNK         0.0855 
     98 H98       -72.4162   22.6118  -76.1316 H         1 UNK         0.0814 
     99 H99       -70.9262   22.3748  -77.0354 H         1 UNK         0.0814 
    100 H100      -72.4734   22.0981  -77.8177 H         1 UNK         0.0814 
    101 H101      -74.0712   24.0587  -77.2372 H         1 UNK         0.3105 
    102 H102      -75.3058   27.2440  -77.8173 H         1 UNK         0.0547 
    103 H103      -77.0481   26.3206  -79.3027 H         1 UNK         0.0837 
    104 H104      -75.5420   26.4740  -80.1908 H         1 UNK         0.0837 
    105 H105      -76.0663   24.8927  -79.6263 H         1 UNK         0.0837 
    106 H106      -76.8072   24.9788  -77.2217 H         1 UNK         0.3020 
    107 H107      -75.7930   24.1842  -73.9936 H         1 UNK         0.1245 
    108 H108      -77.9863   26.2803  -74.4314 H         1 UNK         0.0781 
    109 H109      -76.6387   26.4558  -73.3490 H         1 UNK         0.0781 
    110 H110      -76.3627   24.9764  -71.0449 H         1 UNK         0.0836 
    111 H111      -77.8473   24.8697  -70.1317 H         1 UNK         0.0836 
    112 H112      -78.3362   23.8857  -75.2042 H         1 UNK         0.3022 
    113 H113      -77.6962   21.5025  -77.6273 H         1 UNK         0.0747 
    114 H114      -79.1057   19.9182  -76.3219 H         1 UNK         0.0793 
    115 H115      -77.4753   19.9517  -75.6710 H         1 UNK         0.0793 
    116 H116      -78.7673   20.8035  -74.8345 H         1 UNK         0.0793 
    117 H117      -80.1187   22.2913  -76.3008 H         1 UNK         0.3047 
    118 H118      -80.5440   25.4474  -77.8843 H         1 UNK         0.0822 
    119 H119      -81.5439   23.8231  -79.4343 H         1 UNK         0.0807 
    120 H120      -82.7730   24.4326  -78.3381 H         1 UNK         0.0807 
    121 H121      -82.1013   22.8186  -78.1088 H         1 UNK         0.0807 
    122 H122      -81.0355   25.5971  -75.7712 H         1 UNK         0.2946 
    123 H123      -83.1180   24.3699  -73.7813 H         1 UNK         0.1144 
    124 H124      -81.8720   23.5412  -71.7499 H         1 UNK         0.0793 
    125 H125      -80.5901   22.9402  -72.8013 H         1 UNK         0.0793 
    126 H126      -82.2085   22.2651  -72.9045 H         1 UNK         0.0793 
    127 H127      -80.4381   25.4384  -73.1118 H         1 UNK         0.2896 
@<TRIPOS>BOND
     1    1    2 1    
     2    1   67 1    
     3    1   68 1    
     4    1   69 1    
     5    2    3 2    
     6    2    4 am   BACKBONE|DICT|INTERRES
     7    4    5 1    
     8    4   70 1    
     9    5    6 1    
    10    5   65 1    
    11    5   71 1    
    12    6    7 1    
    13    6   72 1    
    14    6   73 1    
    15    7    8 1    
    16    8    9 1    
    17    8   74 1    
    18    8   75 1    
    19    9   10 ar   
    20    9   14 ar   
    21   10   11 ar   
    22   10   76 1    
    23   11   12 ar   
    24   11   48 1    
    25   12   13 ar   
    26   12   77 1    
    27   13   14 ar   
    28   13   15 1    
    29   14   78 1    
    30   15   16 1    
    31   15   79 1    
    32   15   80 1    
    33   16   17 1    
    34   17   18 1    
    35   17   81 1    
    36   17   82 1    
    37   18   19 1    
    38   18   22 1    
    39   18   83 1    
    40   19   20 am   BACKBONE|DICT|INTERRES
    41   19   21 2    
    42   20   84 1    
    43   20   85 1    
    44   22   23 am   BACKBONE|DICT|INTERRES
    45   22   86 1    
    46   23   24 2    
    47   23   25 1    
    48   25   26 1    
    49   25   27 1    
    50   25   87 1    
    51   26   88 1    
    52   26   89 1    
    53   26   90 1    
    54   27   28 am   BACKBONE|DICT|INTERRES
    55   27   91 1    
    56   28   29 2    
    57   28   30 1    
    58   30   31 1    
    59   30   32 1    
    60   30   92 1    
    61   31   93 1    
    62   31   94 1    
    63   31   95 1    
    64   32   33 am   BACKBONE|DICT|INTERRES
    65   32   96 1    
    66   33   34 2    
    67   33   35 1    
    68   35   36 1    
    69   35   37 1    
    70   35   97 1    
    71   36   98 1    
    72   36   99 1    
    73   36  100 1    
    74   37   38 am   BACKBONE|DICT|INTERRES
    75   37  101 1    
    76   38   39 2    
    77   38   40 1    
    78   40   41 1    
    79   40   42 1    
    80   40  102 1    
    81   41  103 1    
    82   41  104 1    
    83   41  105 1    
    84   42   43 am   BACKBONE|DICT|INTERRES
    85   42  106 1    
    86   43   44 2    
    87   43   45 1    
    88   45   46 1    
    89   45   49 1    
    90   45  107 1    
    91   46   47 1    
    92   46  108 1    
    93   46  109 1    
    94   47   48 1    
    95   48  110 1    
    96   48  111 1    
    97   49   50 am   BACKBONE|DICT|INTERRES
    98   49  112 1    
    99   50   51 2    
   100   50   52 1    
   101   52   53 1    
   102   52   54 1    
   103   52  113 1    
   104   53  114 1    
   105   53  115 1    
   106   53  116 1    
   107   54   55 am   BACKBONE|DICT|INTERRES
   108   54  117 1    
   109   55   56 2    
   110   55   57 1    
   111   57   58 1    
   112   57   59 1    
   113   57  118 1    
   114   58  119 1    
   115   58  120 1    
   116   58  121 1    
   117   59   60 am   BACKBONE|DICT|INTERRES
   118   59  122 1    
   119   60   61 2    
   120   60   62 1    
   121   62   63 1    
   122   62   64 1    
   123   62  123 1    
   124   63  124 1    
   125   63  125 1    
   126   63  126 1    
   127   64   65 am   BACKBONE|DICT|INTERRES
   128   64  127 1    
   129   65   66 2    
@<TRIPOS>SUBSTRUCTURE
     1 UNK         1 GROUP             0       ****    0 ROOT    
