@<TRIPOS>MOLECULE
3R135
127   129    1
SMALL
USER_CHARGES


@<TRIPOS>ATOM
      1 CA        -80.6290   25.2990  -69.8210 C.3       0 UNK        -0.1998 
      2 C         -81.8427   25.5457  -70.7032 C.2       0 UNK         0.4909 
      3 O         -82.7897   24.7594  -70.6734 O.2       0 UNK        -0.5240 
      4 N         -81.8268   26.6361  -71.4817 N.am      1 UNK        -0.4739 
      5 CA        -82.8957   27.0120  -72.4166 C.3       1 UNK         0.0864 
      6 C6        -82.8122   28.5049  -72.8309 C.3       11 UNK        -0.0881 
      7 S7        -81.2140   28.9750  -73.5824 S.3       11 UNK        -0.2682 
      8 C8        -80.3997   29.8602  -72.2162 C.3       11 UNK         0.0289 
      9 C9        -78.8955   29.6702  -72.3021 C.ar      11 UNK        -0.0687 
     10 C10       -78.2872   28.6092  -71.6233 C.ar      11 UNK        -0.0823 
     11 C11       -76.9176   28.3663  -71.7642 C.ar      11 UNK        -0.0830 
     12 C12       -76.1585   29.2216  -72.5656 C.ar      11 UNK        -0.1021 
     13 C13       -76.7402   30.3192  -73.2049 C.ar      11 UNK        -0.0753 
     14 C14       -78.1157   30.5331  -73.0796 C.ar      11 UNK        -0.0933 
     15 C15       -75.8705   31.2595  -74.0279 C.3       11 UNK         0.0166 
     16 S16       -74.5760   32.0134  -72.9932 S.3       11 UNK        -0.2615 
     17 C17       -73.4070   32.6443  -74.2450 C.3       11 UNK        -0.0865 
     18 CA        -72.5882   31.5541  -74.9972 C.3       10 UNK         0.0862 
     19 C         -71.4887   32.2255  -75.8733 C.2       10 UNK         0.5551 
     20 N         -70.2058   32.0413  -75.5868 N.am      10 UNK        -0.7319 
     21 O         -71.8106   32.9328  -76.8249 O.2       10 UNK        -0.5018 
     22 N         -72.1299   30.4700  -74.1064 N.am      10 UNK        -0.4509 
     23 C         -71.6415   29.2915  -74.5179 C.2       10 UNK         0.4899 
     24 O         -71.4171   29.0245  -75.6983 O.2       10 UNK        -0.4839 
     25 CA        -71.3272   28.2327  -73.4467 C.3       9 UNK         0.0222 
     26 CB        -71.9598   28.5036  -72.0667 C.3       9 UNK        -0.1966 
     27 N         -71.7670   26.9227  -73.9307 N.am      9 UNK        -0.4218 
     28 C         -70.9652   25.8723  -74.1431 C.2       9 UNK         0.5020 
     29 O         -69.7604   25.8575  -73.8830 O.2       9 UNK        -0.5274 
     30 CA        -71.6124   24.6129  -74.7425 C.3       8 UNK         0.0270 
     31 CB        -72.2930   23.7818  -73.6422 C.3       8 UNK        -0.1976 
     32 N         -72.5700   24.9018  -75.8147 N.am      8 UNK        -0.4313 
     33 C         -72.2380   25.3725  -77.0266 C.2       8 UNK         0.5041 
     34 O         -71.0798   25.6045  -77.3760 O.2       8 UNK        -0.5577 
     35 CA        -73.3783   25.5951  -78.0357 C.3       7 UNK         0.0284 
     36 CB        -73.7183   24.2836  -78.7622 C.3       7 UNK        -0.1958 
     37 N         -74.5855   26.1322  -77.4086 N.am      7 UNK        -0.4454 
     38 C         -74.7537   27.4115  -77.0487 C.2       7 UNK         0.5089 
     39 O         -73.9605   28.3099  -77.3228 O.2       7 UNK        -0.5125 
     40 CA        -76.0168   27.7556  -76.2381 C.3       6 UNK         0.0408 
     41 CB        -77.1462   28.2443  -77.1566 C.3       6 UNK        -0.1791 
     42 N         -76.5052   26.6534  -75.4081 N.am      6 UNK        -0.4762 
     43 C         -75.8284   26.1076  -74.3866 C.2       6 UNK         0.5007 
     44 O         -74.7014   26.4631  -74.0353 O.2       6 UNK        -0.5032 
     45 CA        -76.5177   24.9204  -73.6885 C.3       5 UNK         0.0783 
     46 C46       -77.6640   25.3952  -72.7568 C.3       11 UNK        -0.0857 
     47 S47       -77.1567   25.6368  -71.0224 S.3       11 UNK        -0.2512 
     48 C48       -76.2261   27.2096  -71.0451 C.3       11 UNK         0.0225 
     49 N         -77.0017   23.9612  -74.6848 N.am      5 UNK        -0.4615 
     50 C         -76.2171   23.2115  -75.4708 C.2       4 UNK         0.5053 
     51 O         -74.9892   23.2118  -75.4080 O.2       4 UNK        -0.5105 
     52 CA        -76.9183   22.3546  -76.5392 C.3       4 UNK         0.0263 
     53 CB        -77.3337   20.9963  -75.9530 C.3       4 UNK        -0.1981 
     54 N         -78.0892   23.0172  -77.1200 N.am      4 UNK        -0.4224 
     55 C         -78.0407   24.1503  -77.8360 C.2       3 UNK         0.4895 
     56 O         -76.9942   24.7162  -78.1450 O.2       3 UNK        -0.5091 
     57 CA        -79.3816   24.7883  -78.2369 C.3       3 UNK         0.0250 
     58 CB        -79.8136   24.2984  -79.6280 C.3       3 UNK        -0.1996 
     59 N         -80.4664   24.5563  -77.2763 N.am      3 UNK        -0.4254 
     60 C         -80.4583   24.9472  -75.9942 C.2       2 UNK         0.5004 
     61 O         -79.5048   25.5121  -75.4492 O.2       2 UNK        -0.5226 
     62 CA        -81.6996   24.5840  -75.1742 C.3       2 UNK         0.0269 
     63 CB        -81.5821   23.1512  -74.6258 C.3       2 UNK        -0.1926 
     64 N         -81.8315   25.5108  -74.0545 N.am      2 UNK        -0.4687 
     65 C         -82.9754   26.0711  -73.6401 C.2       1 UNK         0.5165 
     66 O         -84.0691   25.8594  -74.1672 O.2       1 UNK        -0.5079 
     67 H67       -80.0460   24.4646  -70.2102 H         1 UNK         0.0900 
     68 H68       -79.9813   26.1728  -69.7649 H         1 UNK         0.0900 
     69 H69       -80.9439   25.0512  -68.8077 H         1 UNK         0.0900 
     70 H70       -81.0218   27.2435  -71.4826 H         1 UNK         0.2959 
     71 H71       -83.8423   26.8845  -71.8857 H         1 UNK         0.1079 
     72 H72       -83.0040   29.1374  -71.9629 H         1 UNK         0.0837 
     73 H73       -83.6070   28.7467  -73.5393 H         1 UNK         0.0837 
     74 H74       -80.6572   30.9193  -72.2645 H         1 UNK         0.0685 
     75 H75       -80.7632   29.4971  -71.2537 H         1 UNK         0.0685 
     76 H76       -78.8832   27.9548  -71.0049 H         1 UNK         0.1434 
     77 H77       -75.1005   29.0471  -72.6868 H         1 UNK         0.1329 
     78 H78       -78.5831   31.3617  -73.5938 H         1 UNK         0.1335 
     79 H79       -75.4119   30.6985  -74.8409 H         1 UNK         0.0680 
     80 H80       -76.4671   32.0488  -74.4878 H         1 UNK         0.0680 
     81 H81       -73.9587   33.2613  -74.9571 H         1 UNK         0.1032 
     82 H82       -72.7306   33.3261  -73.7253 H         1 UNK         0.1032 
     83 H83       -73.2667   31.0802  -75.7090 H         1 UNK         0.0461 
     84 H84       -69.9375   31.4551  -74.8130 H         1 UNK         0.3453 
     85 H85       -69.5015   32.4793  -76.1594 H         1 UNK         0.3453 
     86 H86       -72.2804   30.6228  -73.1202 H         1 UNK         0.2984 
     87 H87       -70.2431   28.2486  -73.3211 H         1 UNK         0.0554 
     88 H88       -71.6957   27.7174  -71.3591 H         1 UNK         0.0847 
     89 H89       -73.0459   28.5415  -72.1176 H         1 UNK         0.0847 
     90 H90       -71.6073   29.4419  -71.6373 H         1 UNK         0.0847 
     91 H91       -72.7505   26.8376  -74.1756 H         1 UNK         0.3141 
     92 H92       -70.8114   24.0064  -75.1706 H         1 UNK         0.0743 
     93 H93       -73.1413   24.3080  -73.2034 H         1 UNK         0.0784 
     94 H94       -72.6538   22.8297  -74.0314 H         1 UNK         0.0784 
     95 H95       -71.5954   23.5561  -72.8346 H         1 UNK         0.0784 
     96 H96       -73.5401   24.6698  -75.6291 H         1 UNK         0.3213 
     97 H97       -73.0277   26.3126  -78.7809 H         1 UNK         0.0855 
     98 H98       -74.0860   23.5225  -78.0733 H         1 UNK         0.0814 
     99 H99       -72.8388   23.8750  -79.2616 H         1 UNK         0.0814 
    100 H100      -74.4815   24.4399  -79.5249 H         1 UNK         0.0814 
    101 H101      -75.3570   25.4890  -77.2633 H         1 UNK         0.3105 
    102 H102      -75.7533   28.5689  -75.5622 H         1 UNK         0.0547 
    103 H103      -76.8297   29.1165  -77.7300 H         1 UNK         0.0837 
    104 H104      -77.4441   27.4767  -77.8705 H         1 UNK         0.0837 
    105 H105      -78.0273   28.5347  -76.5836 H         1 UNK         0.0837 
    106 H106      -77.4302   26.2941  -75.6164 H         1 UNK         0.3020 
    107 H107      -75.7616   24.4058  -73.0909 H         1 UNK         0.1245 
    108 H108      -78.4460   24.6348  -72.7194 H         1 UNK         0.0781 
    109 H109      -78.1682   26.2855  -73.1367 H         1 UNK         0.0781 
    110 H110      -75.2461   27.0178  -71.4837 H         1 UNK         0.0836 
    111 H111      -76.0371   27.5113  -70.0143 H         1 UNK         0.0836 
    112 H112      -77.9969   23.9728  -74.8621 H         1 UNK         0.3022 
    113 H113      -76.2008   22.1763  -77.3431 H         1 UNK         0.0747 
    114 H114      -77.7582   20.3467  -76.7187 H         1 UNK         0.0793 
    115 H115      -76.4732   20.4756  -75.5301 H         1 UNK         0.0793 
    116 H116      -78.0718   21.1058  -75.1572 H         1 UNK         0.0793 
    117 H117      -78.9924   22.6115  -76.9246 H         1 UNK         0.3047 
    118 H118      -79.2224   25.8669  -78.2907 H         1 UNK         0.0822 
    119 H119      -80.7076   24.8184  -79.9729 H         1 UNK         0.0807 
    120 H120      -80.0227   23.2279  -79.6340 H         1 UNK         0.0807 
    121 H121      -79.0310   24.4816  -80.3660 H         1 UNK         0.0807 
    122 H122      -81.2838   24.0818  -77.6331 H         1 UNK         0.2946 
    123 H123      -82.5733   24.6552  -75.8265 H         1 UNK         0.1144 
    124 H124      -82.4614   22.8805  -74.0408 H         1 UNK         0.0793 
    125 H125      -80.7078   23.0351  -73.9836 H         1 UNK         0.0793 
    126 H126      -81.4962   22.4233  -75.4335 H         1 UNK         0.0793 
    127 H127      -80.9611   25.8058  -73.6330 H         1 UNK         0.2896 
@<TRIPOS>BOND
     1    1    2 1    
     2    1   67 1    
     3    1   68 1    
     4    1   69 1    
     5    2    3 2    
     6    2    4 am   BACKBONE|DICT|INTERRES
     7    4    5 1    
     8    4   70 1    
     9    5    6 1    
    10    5   65 1    
    11    5   71 1    
    12    6    7 1    
    13    6   72 1    
    14    6   73 1    
    15    7    8 1    
    16    8    9 1    
    17    8   74 1    
    18    8   75 1    
    19    9   10 ar   
    20    9   14 ar   
    21   10   11 ar   
    22   10   76 1    
    23   11   12 ar   
    24   11   48 1    
    25   12   13 ar   
    26   12   77 1    
    27   13   14 ar   
    28   13   15 1    
    29   14   78 1    
    30   15   16 1    
    31   15   79 1    
    32   15   80 1    
    33   16   17 1    
    34   17   18 1    
    35   17   81 1    
    36   17   82 1    
    37   18   19 1    
    38   18   22 1    
    39   18   83 1    
    40   19   20 am   BACKBONE|DICT|INTERRES
    41   19   21 2    
    42   20   84 1    
    43   20   85 1    
    44   22   23 am   BACKBONE|DICT|INTERRES
    45   22   86 1    
    46   23   24 2    
    47   23   25 1    
    48   25   26 1    
    49   25   27 1    
    50   25   87 1    
    51   26   88 1    
    52   26   89 1    
    53   26   90 1    
    54   27   28 am   BACKBONE|DICT|INTERRES
    55   27   91 1    
    56   28   29 2    
    57   28   30 1    
    58   30   31 1    
    59   30   32 1    
    60   30   92 1    
    61   31   93 1    
    62   31   94 1    
    63   31   95 1    
    64   32   33 am   BACKBONE|DICT|INTERRES
    65   32   96 1    
    66   33   34 2    
    67   33   35 1    
    68   35   36 1    
    69   35   37 1    
    70   35   97 1    
    71   36   98 1    
    72   36   99 1    
    73   36  100 1    
    74   37   38 am   BACKBONE|DICT|INTERRES
    75   37  101 1    
    76   38   39 2    
    77   38   40 1    
    78   40   41 1    
    79   40   42 1    
    80   40  102 1    
    81   41  103 1    
    82   41  104 1    
    83   41  105 1    
    84   42   43 am   BACKBONE|DICT|INTERRES
    85   42  106 1    
    86   43   44 2    
    87   43   45 1    
    88   45   46 1    
    89   45   49 1    
    90   45  107 1    
    91   46   47 1    
    92   46  108 1    
    93   46  109 1    
    94   47   48 1    
    95   48  110 1    
    96   48  111 1    
    97   49   50 am   BACKBONE|DICT|INTERRES
    98   49  112 1    
    99   50   51 2    
   100   50   52 1    
   101   52   53 1    
   102   52   54 1    
   103   52  113 1    
   104   53  114 1    
   105   53  115 1    
   106   53  116 1    
   107   54   55 am   BACKBONE|DICT|INTERRES
   108   54  117 1    
   109   55   56 2    
   110   55   57 1    
   111   57   58 1    
   112   57   59 1    
   113   57  118 1    
   114   58  119 1    
   115   58  120 1    
   116   58  121 1    
   117   59   60 am   BACKBONE|DICT|INTERRES
   118   59  122 1    
   119   60   61 2    
   120   60   62 1    
   121   62   63 1    
   122   62   64 1    
   123   62  123 1    
   124   63  124 1    
   125   63  125 1    
   126   63  126 1    
   127   64   65 am   BACKBONE|DICT|INTERRES
   128   64  127 1    
   129   65   66 2    
@<TRIPOS>SUBSTRUCTURE
     1 UNK         1 GROUP             0       ****    0 ROOT    
