@<TRIPOS>MOLECULE
3R135
127   129    1
SMALL
USER_CHARGES


@<TRIPOS>ATOM
      1 CA        -82.3488   26.6040  -69.9924 C.3       0 UNK        -0.1998 
      2 C         -82.8357   27.0311  -71.3688 C.2       0 UNK         0.4909 
      3 O         -83.9656   26.7189  -71.7450 O.2       0 UNK        -0.5240 
      4 N         -81.9880   27.7402  -72.1250 N.am      1 UNK        -0.4739 
      5 CA        -82.2654   28.2108  -73.4896 C.3       1 UNK         0.0864 
      6 C6        -81.4481   29.4824  -73.8379 C.3       11 UNK        -0.0881 
      7 S7        -79.6395   29.2694  -73.7099 S.3       11 UNK        -0.2682 
      8 C8        -79.3072   30.0185  -72.0809 C.3       11 UNK         0.0289 
      9 C9        -77.8719   29.7660  -71.6458 C.ar      11 UNK        -0.0687 
     10 C10       -77.4124   28.4548  -71.4967 C.ar      11 UNK        -0.0823 
     11 C11       -76.0763   28.1919  -71.1733 C.ar      11 UNK        -0.0830 
     12 C12       -75.2207   29.2722  -70.9293 C.ar      11 UNK        -0.1021 
     13 C13       -75.6770   30.5905  -71.0288 C.ar      11 UNK        -0.0753 
     14 C14       -77.0026   30.8317  -71.4008 C.ar      11 UNK        -0.0933 
     15 C15       -74.7368   31.7535  -70.7388 C.3       11 UNK         0.0166 
     16 S16       -73.4705   31.9671  -72.0309 S.3       11 UNK        -0.2615 
     17 C17       -74.4937   32.3137  -73.5034 C.3       11 UNK        -0.0865 
     18 CA        -74.6739   31.0698  -74.4182 C.3       10 UNK         0.0862 
     19 C         -75.7083   31.3315  -75.5515 C.2       10 UNK         0.5551 
     20 N         -75.4482   30.9376  -76.7934 N.am      10 UNK        -0.7319 
     21 O         -76.7681   31.9010  -75.3053 O.2       10 UNK        -0.5018 
     22 N         -73.3817   30.5817  -74.9315 N.am      10 UNK        -0.4509 
     23 C         -72.8005   29.4239  -74.6012 C.2       10 UNK         0.4899 
     24 O         -73.2507   28.6344  -73.7710 O.2       10 UNK        -0.4839 
     25 CA        -71.4901   29.1182  -75.3449 C.3       9 UNK         0.0222 
     26 CB        -70.2808   29.8231  -74.6962 C.3       9 UNK        -0.1966 
     27 N         -71.2879   27.6762  -75.5297 N.am      9 UNK        -0.4218 
     28 C         -70.8410   26.7516  -74.6640 C.2       9 UNK         0.5020 
     29 O         -70.3733   27.0052  -73.5522 O.2       9 UNK        -0.5274 
     30 CA        -70.9167   25.2828  -75.1312 C.3       8 UNK         0.0270 
     31 CB        -71.0812   24.3040  -73.9529 C.3       8 UNK        -0.1976 
     32 N         -72.0282   25.0855  -76.0644 N.am      8 UNK        -0.4313 
     33 C         -71.9179   24.9357  -77.3915 C.2       8 UNK         0.5041 
     34 O         -70.8388   24.8759  -77.9818 O.2       8 UNK        -0.5577 
     35 CA        -73.2201   24.8673  -78.2153 C.3       7 UNK         0.0284 
     36 CB        -73.5663   23.4048  -78.5390 C.3       7 UNK        -0.1958 
     37 N         -74.3759   25.5014  -77.5738 N.am      7 UNK        -0.4454 
     38 C         -74.4670   26.7933  -77.2280 C.2       7 UNK         0.5089 
     39 O         -73.6104   27.6350  -77.5005 O.2       7 UNK        -0.5125 
     40 CA        -75.6899   27.2085  -76.3892 C.3       6 UNK         0.0408 
     41 CB        -76.8222   27.7036  -77.2997 C.3       6 UNK        -0.1791 
     42 N         -76.2079   26.1624  -75.4992 N.am      6 UNK        -0.4762 
     43 C         -75.5053   25.5082  -74.5587 C.2       6 UNK         0.5007 
     44 O         -74.2941   25.6308  -74.3883 O.2       6 UNK        -0.5032 
     45 CA        -76.2910   24.5011  -73.7030 C.3       5 UNK         0.0783 
     46 C46       -77.2911   25.2176  -72.7549 C.3       11 UNK        -0.0857 
     47 S47       -76.6824   25.3866  -71.0395 S.3       11 UNK        -0.2512 
     48 C48       -75.4921   26.7776  -71.1125 C.3       11 UNK         0.0225 
     49 N         -76.9508   23.5442  -74.5913 N.am      5 UNK        -0.4615 
     50 C         -76.3284   22.5183  -75.1895 C.2       4 UNK         0.5053 
     51 O         -75.1670   22.1897  -74.9497 O.2       4 UNK        -0.5105 
     52 CA        -77.1229   21.7309  -76.2479 C.3       4 UNK         0.0263 
     53 CB        -77.7634   20.4834  -75.6187 C.3       4 UNK        -0.1981 
     54 N         -78.1621   22.5252  -76.9084 N.am      4 UNK        -0.4224 
     55 C         -77.9336   23.5862  -77.6965 C.2       3 UNK         0.4895 
     56 O         -76.8110   23.9842  -78.0030 O.2       3 UNK        -0.5091 
     57 CA        -79.1692   24.3690  -78.1732 C.3       3 UNK         0.0250 
     58 CB        -79.7012   23.7849  -79.4913 C.3       3 UNK        -0.1996 
     59 N         -80.2491   24.4111  -77.1803 N.am      3 UNK        -0.4254 
     60 C         -80.1435   24.9462  -75.9556 C.2       2 UNK         0.5004 
     61 O         -79.1126   25.4642  -75.5158 O.2       2 UNK        -0.5226 
     62 CA        -81.3635   24.7828  -75.0398 C.3       2 UNK         0.0269 
     63 CB        -81.1991   23.5323  -74.1598 C.3       2 UNK        -0.1926 
     64 N         -81.5466   25.9476  -74.1766 N.am      2 UNK        -0.4687 
     65 C         -82.1182   27.0993  -74.5563 C.2       1 UNK         0.5165 
     66 O         -82.5525   27.2945  -75.6932 O.2       1 UNK        -0.5079 
     67 H67       -82.3641   25.5176  -69.9096 H         1 UNK         0.0900 
     68 H68       -81.3326   26.9448  -69.7943 H         1 UNK         0.0900 
     69 H69       -83.0000   27.0138  -69.2208 H         1 UNK         0.0900 
     70 H70       -81.0673   27.9591  -71.7742 H         1 UNK         0.2959 
     71 H71       -83.3182   28.5006  -73.5265 H         1 UNK         0.1079 
     72 H72       -81.7571   30.3033  -73.1890 H         1 UNK         0.0837 
     73 H73       -81.6801   29.8172  -74.8508 H         1 UNK         0.0837 
     74 H74       -79.5162   31.0881  -72.1342 H         1 UNK         0.0685 
     75 H75       -79.9820   29.6050  -71.3311 H         1 UNK         0.0685 
     76 H76       -78.1095   27.6503  -71.6668 H         1 UNK         0.1434 
     77 H77       -74.1843   29.0899  -70.6785 H         1 UNK         0.1329 
     78 H78       -77.3564   31.8484  -71.5030 H         1 UNK         0.1335 
     79 H79       -75.2935   32.6851  -70.6254 H         1 UNK         0.0680 
     80 H80       -74.2378   31.5797  -69.7845 H         1 UNK         0.0680 
     81 H81       -75.4601   32.6992  -73.1738 H         1 UNK         0.1032 
     82 H82       -74.0260   33.1265  -74.0613 H         1 UNK         0.1032 
     83 H83       -75.1384   30.2852  -73.8192 H         1 UNK         0.0461 
     84 H84       -74.6016   30.4378  -77.0122 H         1 UNK         0.3453 
     85 H85       -76.1249   31.1252  -77.5156 H         1 UNK         0.3453 
     86 H86       -72.9369   31.1752  -75.6168 H         1 UNK         0.2984 
     87 H87       -71.5924   29.5124  -76.3573 H         1 UNK         0.0554 
     88 H88       -69.3479   29.5566  -75.1929 H         1 UNK         0.0847 
     89 H89       -70.1842   29.5766  -73.6385 H         1 UNK         0.0847 
     90 H90       -70.3847   30.9068  -74.7592 H         1 UNK         0.0847 
     91 H91       -71.7022   27.3217  -76.3832 H         1 UNK         0.3141 
     92 H92       -69.9673   25.0588  -75.6212 H         1 UNK         0.0743 
     93 H93       -71.9771   24.5237  -73.3709 H         1 UNK         0.0784 
     94 H94       -71.1522   23.2733  -74.3007 H         1 UNK         0.0784 
     95 H95       -70.2287   24.3575  -73.2746 H         1 UNK         0.0784 
     96 H96       -72.9546   25.1804  -75.6505 H         1 UNK         0.3213 
     97 H97       -73.0369   25.3942  -79.1540 H         1 UNK         0.0855 
     98 H98       -73.8176   22.8425  -77.6385 H         1 UNK         0.0814 
     99 H99       -72.7270   22.8989  -79.0183 H         1 UNK         0.0814 
    100 H100      -74.4136   23.3397  -79.2219 H         1 UNK         0.0814 
    101 H101      -75.1800   24.9054  -77.3962 H         1 UNK         0.3105 
    102 H102      -75.3794   28.0379  -75.7513 H         1 UNK         0.0547 
    103 H103      -76.4847   28.5251  -77.9322 H         1 UNK         0.0837 
    104 H104      -77.1758   26.9138  -77.9610 H         1 UNK         0.0837 
    105 H105      -77.6711   28.0671  -76.7196 H         1 UNK         0.0837 
    106 H106      -77.2038   25.9678  -75.5679 H         1 UNK         0.3020 
    107 H107      -75.5673   23.9484  -73.0985 H         1 UNK         0.1245 
    108 H108      -78.2082   24.6322  -72.6775 H         1 UNK         0.0781 
    109 H109      -77.6155   26.1798  -73.1519 H         1 UNK         0.0781 
    110 H110      -74.8186   26.6405  -71.9582 H         1 UNK         0.0836 
    111 H111      -74.8662   26.7059  -70.2217 H         1 UNK         0.0836 
    112 H112      -77.8841   23.7921  -74.8918 H         1 UNK         0.3022 
    113 H113      -76.4144   21.4063  -77.0132 H         1 UNK         0.0747 
    114 H114      -78.2612   19.8701  -76.3701 H         1 UNK         0.0793 
    115 H115      -77.0087   19.8569  -75.1408 H         1 UNK         0.0793 
    116 H116      -78.4984   20.7462  -74.8567 H         1 UNK         0.0793 
    117 H117      -79.1198   22.2674  -76.7217 H         1 UNK         0.3047 
    118 H118      -78.8574   25.3973  -78.3605 H         1 UNK         0.0822 
    119 H119      -80.5200   24.3845  -79.8897 H         1 UNK         0.0807 
    120 H120      -80.0617   22.7630  -79.3670 H         1 UNK         0.0807 
    121 H121      -78.9188   23.7641  -80.2516 H         1 UNK         0.0807 
    122 H122      -81.1271   23.9939  -77.4556 H         1 UNK         0.2946 
    123 H123      -82.2582   24.6616  -75.6554 H         1 UNK         0.1144 
    124 H124      -82.0677   23.3841  -73.5176 H         1 UNK         0.0793 
    125 H125      -80.3185   23.5981  -73.5198 H         1 UNK         0.0793 
    126 H126      -81.0934   22.6334  -74.7685 H         1 UNK         0.0793 
    127 H127      -81.1834   25.8846  -73.2378 H         1 UNK         0.2896 
@<TRIPOS>BOND
     1    1    2 1    
     2    1   67 1    
     3    1   68 1    
     4    1   69 1    
     5    2    3 2    
     6    2    4 am   BACKBONE|DICT|INTERRES
     7    4    5 1    
     8    4   70 1    
     9    5    6 1    
    10    5   65 1    
    11    5   71 1    
    12    6    7 1    
    13    6   72 1    
    14    6   73 1    
    15    7    8 1    
    16    8    9 1    
    17    8   74 1    
    18    8   75 1    
    19    9   10 ar   
    20    9   14 ar   
    21   10   11 ar   
    22   10   76 1    
    23   11   12 ar   
    24   11   48 1    
    25   12   13 ar   
    26   12   77 1    
    27   13   14 ar   
    28   13   15 1    
    29   14   78 1    
    30   15   16 1    
    31   15   79 1    
    32   15   80 1    
    33   16   17 1    
    34   17   18 1    
    35   17   81 1    
    36   17   82 1    
    37   18   19 1    
    38   18   22 1    
    39   18   83 1    
    40   19   20 am   BACKBONE|DICT|INTERRES
    41   19   21 2    
    42   20   84 1    
    43   20   85 1    
    44   22   23 am   BACKBONE|DICT|INTERRES
    45   22   86 1    
    46   23   24 2    
    47   23   25 1    
    48   25   26 1    
    49   25   27 1    
    50   25   87 1    
    51   26   88 1    
    52   26   89 1    
    53   26   90 1    
    54   27   28 am   BACKBONE|DICT|INTERRES
    55   27   91 1    
    56   28   29 2    
    57   28   30 1    
    58   30   31 1    
    59   30   32 1    
    60   30   92 1    
    61   31   93 1    
    62   31   94 1    
    63   31   95 1    
    64   32   33 am   BACKBONE|DICT|INTERRES
    65   32   96 1    
    66   33   34 2    
    67   33   35 1    
    68   35   36 1    
    69   35   37 1    
    70   35   97 1    
    71   36   98 1    
    72   36   99 1    
    73   36  100 1    
    74   37   38 am   BACKBONE|DICT|INTERRES
    75   37  101 1    
    76   38   39 2    
    77   38   40 1    
    78   40   41 1    
    79   40   42 1    
    80   40  102 1    
    81   41  103 1    
    82   41  104 1    
    83   41  105 1    
    84   42   43 am   BACKBONE|DICT|INTERRES
    85   42  106 1    
    86   43   44 2    
    87   43   45 1    
    88   45   46 1    
    89   45   49 1    
    90   45  107 1    
    91   46   47 1    
    92   46  108 1    
    93   46  109 1    
    94   47   48 1    
    95   48  110 1    
    96   48  111 1    
    97   49   50 am   BACKBONE|DICT|INTERRES
    98   49  112 1    
    99   50   51 2    
   100   50   52 1    
   101   52   53 1    
   102   52   54 1    
   103   52  113 1    
   104   53  114 1    
   105   53  115 1    
   106   53  116 1    
   107   54   55 am   BACKBONE|DICT|INTERRES
   108   54  117 1    
   109   55   56 2    
   110   55   57 1    
   111   57   58 1    
   112   57   59 1    
   113   57  118 1    
   114   58  119 1    
   115   58  120 1    
   116   58  121 1    
   117   59   60 am   BACKBONE|DICT|INTERRES
   118   59  122 1    
   119   60   61 2    
   120   60   62 1    
   121   62   63 1    
   122   62   64 1    
   123   62  123 1    
   124   63  124 1    
   125   63  125 1    
   126   63  126 1    
   127   64   65 am   BACKBONE|DICT|INTERRES
   128   64  127 1    
   129   65   66 2    
@<TRIPOS>SUBSTRUCTURE
     1 UNK         1 GROUP             0       ****    0 ROOT    
