@<TRIPOS>MOLECULE
3R135
127   129    1
SMALL
USER_CHARGES


@<TRIPOS>ATOM
      1 CA        -79.2501   30.0972  -76.0319 C.3       0 UNK        -0.1998 
      2 C         -79.5954   29.1855  -74.8647 C.2       0 UNK         0.4909 
      3 O         -78.7502   28.4062  -74.4293 O.2       0 UNK        -0.5240 
      4 N         -80.8282   29.2791  -74.3487 N.am      1 UNK        -0.4739 
      5 CA        -81.3197   28.4852  -73.2197 C.3       1 UNK         0.0864 
      6 C6        -82.3931   29.2602  -72.4096 C.3       11 UNK        -0.0881 
      7 S7        -82.6987   28.5304  -70.7619 S.3       11 UNK        -0.2682 
      8 C8        -81.5660   29.4855  -69.6994 C.3       11 UNK         0.0289 
      9 C9        -80.1099   29.2817  -70.0937 C.ar      11 UNK        -0.0687 
     10 C10       -79.5009   28.0366  -69.9183 C.ar      11 UNK        -0.0823 
     11 C11       -78.1803   27.8208  -70.3220 C.ar      11 UNK        -0.0830 
     12 C12       -77.4543   28.8917  -70.8628 C.ar      11 UNK        -0.1021 
     13 C13       -78.0530   30.1439  -71.0618 C.ar      11 UNK        -0.0753 
     14 C14       -79.3828   30.3254  -70.6707 C.ar      11 UNK        -0.0933 
     15 C15       -77.3336   31.3180  -71.7318 C.3       11 UNK         0.0166 
     16 S16       -75.5101   31.2870  -71.6612 S.3       11 UNK        -0.2615 
     17 C17       -75.1027   30.3236  -73.1588 C.3       11 UNK        -0.0865 
     18 CA        -73.5843   30.0393  -73.3019 C.3       10 UNK         0.0862 
     19 C         -73.0874   28.9855  -72.2717 C.2       10 UNK         0.5551 
     20 N         -73.0107   27.7110  -72.6331 N.am      10 UNK        -0.7319 
     21 O         -72.7407   29.3301  -71.1449 O.2       10 UNK        -0.5018 
     22 N         -73.2624   29.6533  -74.6830 N.am      10 UNK        -0.4509 
     23 C         -72.1856   30.0544  -75.3666 C.2       10 UNK         0.4899 
     24 O         -71.3793   30.8919  -74.9572 O.2       10 UNK        -0.4839 
     25 CA        -71.9891   29.3924  -76.7435 C.3       9 UNK         0.0222 
     26 CB        -70.7625   29.9302  -77.5113 C.3       9 UNK        -0.1966 
     27 N         -71.9582   27.9272  -76.6564 N.am      9 UNK        -0.4218 
     28 C         -71.0716   27.1605  -75.9994 C.2       9 UNK         0.5020 
     29 O         -70.1022   27.6096  -75.3863 O.2       9 UNK        -0.5274 
     30 CA        -71.2824   25.6306  -76.0153 C.3       8 UNK         0.0270 
     31 CB        -71.4975   25.0861  -74.5931 C.3       8 UNK        -0.1976 
     32 N         -72.3924   25.1855  -76.8620 N.am      8 UNK        -0.4313 
     33 C         -72.3544   25.1071  -78.1986 C.2       8 UNK         0.5041 
     34 O         -71.3488   25.3386  -78.8705 O.2       8 UNK        -0.5577 
     35 CA        -73.6723   24.7507  -78.9083 C.3       7 UNK         0.0284 
     36 CB        -73.8526   23.2261  -78.9790 C.3       7 UNK        -0.1958 
     37 N         -74.8500   25.3618  -78.2809 N.am      7 UNK        -0.4454 
     38 C         -75.0632   26.6833  -78.1827 C.2       7 UNK         0.5089 
     39 O         -74.2991   27.5355  -78.6349 O.2       7 UNK        -0.5125 
     40 CA        -76.3026   27.1347  -77.3931 C.3       6 UNK         0.0408 
     41 CB        -77.5824   26.9504  -78.2230 C.3       6 UNK        -0.1791 
     42 N         -76.4342   26.4310  -76.1180 N.am      6 UNK        -0.4762 
     43 C         -75.5512   26.4869  -75.1121 C.2       6 UNK         0.5007 
     44 O         -74.5380   27.1865  -75.1283 O.2       6 UNK        -0.5032 
     45 CA        -75.8042   25.5713  -73.9001 C.3       5 UNK         0.0783 
     46 C46       -76.7492   26.2326  -72.8622 C.3       11 UNK        -0.0857 
     47 S47       -76.1219   26.0239  -71.1634 S.3       11 UNK        -0.2512 
     48 C48       -77.5930   26.4161  -70.1511 C.3       11 UNK         0.0225 
     49 N         -76.2674   24.2462  -74.3195 N.am      5 UNK        -0.4615 
     50 C         -75.5164   23.3605  -74.9880 C.2       4 UNK         0.5053 
     51 O         -74.3399   23.5536  -75.2940 O.2       4 UNK        -0.5105 
     52 CA        -76.2071   22.0565  -75.4194 C.3       4 UNK         0.0263 
     53 CB        -76.2810   21.0666  -74.2461 C.3       4 UNK        -0.1981 
     54 N         -77.5498   22.2829  -75.9609 N.am      4 UNK        -0.4224 
     55 C         -77.7990   22.9326  -77.1070 C.2       3 UNK         0.4895 
     56 O         -76.9225   23.3774  -77.8475 O.2       3 UNK        -0.5091 
     57 CA        -79.2767   23.1652  -77.4695 C.3       3 UNK         0.0250 
     58 CB        -79.8593   21.9303  -78.1754 C.3       3 UNK        -0.1996 
     59 N         -80.1337   23.5361  -76.3348 N.am      3 UNK        -0.4254 
     60 C         -79.9162   24.5768  -75.5189 C.2       2 UNK         0.5004 
     61 O         -78.9125   25.2885  -75.5710 O.2       2 UNK        -0.5226 
     62 CA        -80.9707   24.8528  -74.4442 C.3       2 UNK         0.0269 
     63 CB        -80.8046   23.8913  -73.2547 C.3       2 UNK        -0.1926 
     64 N         -80.7984   26.2245  -73.9738 N.am      2 UNK        -0.4687 
     65 C         -81.7760   27.0906  -73.6965 C.2       1 UNK         0.5165 
     66 O         -82.9746   26.8329  -73.8273 O.2       1 UNK        -0.5079 
     67 H67       -78.3762   30.7002  -75.7869 H         1 UNK         0.0900 
     68 H68       -80.0695   30.7715  -76.2796 H         1 UNK         0.0900 
     69 H69       -79.0170   29.5051  -76.9156 H         1 UNK         0.0900 
     70 H70       -81.4967   29.9109  -74.7664 H         1 UNK         0.2959 
     71 H71       -80.4735   28.3135  -72.5534 H         1 UNK         0.1079 
     72 H72       -83.3368   29.3116  -72.9556 H         1 UNK         0.0837 
     73 H73       -82.0788   30.2956  -72.2688 H         1 UNK         0.0837 
     74 H74       -81.8396   30.5411  -69.7387 H         1 UNK         0.0685 
     75 H75       -81.7037   29.1717  -68.6638 H         1 UNK         0.0685 
     76 H76       -80.0727   27.2242  -69.4899 H         1 UNK         0.1434 
     77 H77       -76.4256   28.7402  -71.1485 H         1 UNK         0.1329 
     78 H78       -79.8597   31.2831  -70.8291 H         1 UNK         0.1335 
     79 H79       -77.6556   32.2464  -71.2574 H         1 UNK         0.0680 
     80 H80       -77.6553   31.3805  -72.7724 H         1 UNK         0.0680 
     81 H81       -75.4448   30.9084  -74.0143 H         1 UNK         0.1032 
     82 H82       -75.6790   29.3983  -73.1892 H         1 UNK         0.1032 
     83 H83       -73.0592   30.9693  -73.0749 H         1 UNK         0.0461 
     84 H84       -73.3129   27.4332  -73.5569 H         1 UNK         0.3453 
     85 H85       -72.6783   27.0299  -71.9702 H         1 UNK         0.3453 
     86 H86       -73.8182   28.8913  -75.0639 H         1 UNK         0.2984 
     87 H87       -72.8739   29.6413  -77.3313 H         1 UNK         0.0554 
     88 H88       -70.6760   29.4660  -78.4937 H         1 UNK         0.0847 
     89 H89       -69.8317   29.7509  -76.9724 H         1 UNK         0.0847 
     90 H90       -70.8431   31.0066  -77.6675 H         1 UNK         0.0847 
     91 H91       -72.7271   27.4594  -77.1221 H         1 UNK         0.3141 
     92 H92       -70.3601   25.1927  -76.4027 H         1 UNK         0.0743 
     93 H93       -72.4384   25.4330  -74.1689 H         1 UNK         0.0784 
     94 H94       -71.5149   23.9960  -74.5874 H         1 UNK         0.0784 
     95 H95       -70.6975   25.3999  -73.9212 H         1 UNK         0.0784 
     96 H96       -73.2427   24.9022  -76.3840 H         1 UNK         0.3213 
     97 H97       -73.6085   25.1336  -79.9291 H         1 UNK         0.0855 
     98 H98       -73.9667   22.7867  -77.9874 H         1 UNK         0.0814 
     99 H99       -72.9913   22.7513  -79.4508 H         1 UNK         0.0814 
    100 H100      -74.7315   22.9582  -79.5656 H         1 UNK         0.0814 
    101 H101      -75.5558   24.7244  -77.9185 H         1 UNK         0.3105 
    102 H102      -76.1936   28.1979  -77.1691 H         1 UNK         0.0547 
    103 H103      -77.7287   25.9112  -78.5168 H         1 UNK         0.0837 
    104 H104      -78.4654   27.2621  -77.6654 H         1 UNK         0.0837 
    105 H105      -77.5437   27.5455  -79.1360 H         1 UNK         0.0837 
    106 H106      -77.2867   25.8879  -75.9794 H         1 UNK         0.3020 
    107 H107      -74.8235   25.4293  -73.4406 H         1 UNK         0.1245 
    108 H108      -76.8430   27.3049  -73.0334 H         1 UNK         0.0781 
    109 H109      -77.7639   25.8382  -72.9360 H         1 UNK         0.0781 
    110 H110      -78.3594   25.6716  -70.3736 H         1 UNK         0.0836 
    111 H111      -77.3298   26.2807  -69.1014 H         1 UNK         0.0836 
    112 H112      -77.2436   24.0416  -74.1694 H         1 UNK         0.3022 
    113 H113      -75.5987   21.6059  -76.2067 H         1 UNK         0.0747 
    114 H114      -76.6914   20.1073  -74.5621 H         1 UNK         0.0793 
    115 H115      -75.2879   20.8731  -73.8376 H         1 UNK         0.0793 
    116 H116      -76.8999   21.4453  -73.4317 H         1 UNK         0.0793 
    117 H117      -78.3318   21.9518  -75.4152 H         1 UNK         0.3047 
    118 H118      -79.3043   23.9988  -78.1741 H         1 UNK         0.0822 
    119 H119      -80.8648   22.1239  -78.5496 H         1 UNK         0.0807 
    120 H120      -79.9082   21.0677  -77.5097 H         1 UNK         0.0807 
    121 H121      -79.2472   21.6460  -79.0327 H         1 UNK         0.0807 
    122 H122      -80.9742   22.9896  -76.2107 H         1 UNK         0.2946 
    123 H123      -81.9595   24.7266  -74.8914 H         1 UNK         0.1144 
    124 H124      -81.5481   24.0889  -72.4822 H         1 UNK         0.0793 
    125 H125      -79.8183   23.9813  -72.7972 H         1 UNK         0.0793 
    126 H126      -80.9301   22.8529  -73.5640 H         1 UNK         0.0793 
    127 H127      -79.8440   26.5729  -74.0092 H         1 UNK         0.2896 
@<TRIPOS>BOND
     1    1    2 1    
     2    1   67 1    
     3    1   68 1    
     4    1   69 1    
     5    2    3 2    
     6    2    4 am   BACKBONE|DICT|INTERRES
     7    4    5 1    
     8    4   70 1    
     9    5    6 1    
    10    5   65 1    
    11    5   71 1    
    12    6    7 1    
    13    6   72 1    
    14    6   73 1    
    15    7    8 1    
    16    8    9 1    
    17    8   74 1    
    18    8   75 1    
    19    9   10 ar   
    20    9   14 ar   
    21   10   11 ar   
    22   10   76 1    
    23   11   12 ar   
    24   11   48 1    
    25   12   13 ar   
    26   12   77 1    
    27   13   14 ar   
    28   13   15 1    
    29   14   78 1    
    30   15   16 1    
    31   15   79 1    
    32   15   80 1    
    33   16   17 1    
    34   17   18 1    
    35   17   81 1    
    36   17   82 1    
    37   18   19 1    
    38   18   22 1    
    39   18   83 1    
    40   19   20 am   BACKBONE|DICT|INTERRES
    41   19   21 2    
    42   20   84 1    
    43   20   85 1    
    44   22   23 am   BACKBONE|DICT|INTERRES
    45   22   86 1    
    46   23   24 2    
    47   23   25 1    
    48   25   26 1    
    49   25   27 1    
    50   25   87 1    
    51   26   88 1    
    52   26   89 1    
    53   26   90 1    
    54   27   28 am   BACKBONE|DICT|INTERRES
    55   27   91 1    
    56   28   29 2    
    57   28   30 1    
    58   30   31 1    
    59   30   32 1    
    60   30   92 1    
    61   31   93 1    
    62   31   94 1    
    63   31   95 1    
    64   32   33 am   BACKBONE|DICT|INTERRES
    65   32   96 1    
    66   33   34 2    
    67   33   35 1    
    68   35   36 1    
    69   35   37 1    
    70   35   97 1    
    71   36   98 1    
    72   36   99 1    
    73   36  100 1    
    74   37   38 am   BACKBONE|DICT|INTERRES
    75   37  101 1    
    76   38   39 2    
    77   38   40 1    
    78   40   41 1    
    79   40   42 1    
    80   40  102 1    
    81   41  103 1    
    82   41  104 1    
    83   41  105 1    
    84   42   43 am   BACKBONE|DICT|INTERRES
    85   42  106 1    
    86   43   44 2    
    87   43   45 1    
    88   45   46 1    
    89   45   49 1    
    90   45  107 1    
    91   46   47 1    
    92   46  108 1    
    93   46  109 1    
    94   47   48 1    
    95   48  110 1    
    96   48  111 1    
    97   49   50 am   BACKBONE|DICT|INTERRES
    98   49  112 1    
    99   50   51 2    
   100   50   52 1    
   101   52   53 1    
   102   52   54 1    
   103   52  113 1    
   104   53  114 1    
   105   53  115 1    
   106   53  116 1    
   107   54   55 am   BACKBONE|DICT|INTERRES
   108   54  117 1    
   109   55   56 2    
   110   55   57 1    
   111   57   58 1    
   112   57   59 1    
   113   57  118 1    
   114   58  119 1    
   115   58  120 1    
   116   58  121 1    
   117   59   60 am   BACKBONE|DICT|INTERRES
   118   59  122 1    
   119   60   61 2    
   120   60   62 1    
   121   62   63 1    
   122   62   64 1    
   123   62  123 1    
   124   63  124 1    
   125   63  125 1    
   126   63  126 1    
   127   64   65 am   BACKBONE|DICT|INTERRES
   128   64  127 1    
   129   65   66 2    
@<TRIPOS>SUBSTRUCTURE
     1 UNK         1 GROUP             0       ****    0 ROOT    
