@<TRIPOS>MOLECULE
3R135
127   129    1
SMALL
USER_CHARGES


@<TRIPOS>ATOM
      1 CA        -83.8555   28.3783  -75.6498 C.3       0 UNK        -0.1998 
      2 C         -82.6891   27.5818  -75.0865 C.2       0 UNK         0.4909 
      3 O         -82.7322   26.3513  -75.0906 O.2       0 UNK        -0.5240 
      4 N         -81.6350   28.2737  -74.6264 N.am      1 UNK        -0.4739 
      5 CA        -80.4365   27.7154  -73.9699 C.3       1 UNK         0.0864 
      6 C6        -80.7422   27.1528  -72.5524 C.3       11 UNK        -0.0881 
      7 S7        -81.3641   28.4732  -71.4469 S.3       11 UNK        -0.2682 
      8 C8        -80.0328   28.6770  -70.2111 C.3       11 UNK         0.0289 
      9 C9        -78.6340   28.6838  -70.8164 C.ar      11 UNK        -0.0687 
     10 C10       -77.7021   27.7243  -70.4138 C.ar      11 UNK        -0.0823 
     11 C11       -76.4365   27.6778  -70.9994 C.ar      11 UNK        -0.0830 
     12 C12       -76.1065   28.5947  -72.0002 C.ar      11 UNK        -0.1021 
     13 C13       -77.0220   29.5739  -72.4086 C.ar      11 UNK        -0.0753 
     14 C14       -78.2771   29.6207  -71.7918 C.ar      11 UNK        -0.0933 
     15 C15       -76.7312   30.5716  -73.5329 C.3       11 UNK         0.0166 
     16 S16       -75.0380   30.5465  -74.2196 S.3       11 UNK        -0.2615 
     17 C17       -74.1152   31.4770  -72.9445 C.3       11 UNK        -0.0865 
     18 CA        -72.6627   30.9746  -72.7165 C.3       10 UNK         0.0862 
     19 C         -72.5891   29.7209  -71.7937 C.2       10 UNK         0.5551 
     20 N         -71.9667   28.6186  -72.1953 N.am      10 UNK        -0.7319 
     21 O         -73.0927   29.7576  -70.6744 O.2       10 UNK        -0.5018 
     22 N         -71.9315   30.8557  -73.9862 N.am      10 UNK        -0.4509 
     23 C         -70.6059   30.9549  -74.1281 C.2       10 UNK         0.4899 
     24 O         -69.8390   31.2547  -73.2113 O.2       10 UNK        -0.4839 
     25 CA        -70.0563   30.6549  -75.5374 C.3       9 UNK         0.0222 
     26 CB        -68.5209   30.4975  -75.5557 C.3       9 UNK        -0.1966 
     27 N         -70.6940   29.4959  -76.1805 N.am      9 UNK        -0.4218 
     28 C         -70.7652   28.2406  -75.7150 C.2       9 UNK         0.5020 
     29 O         -70.3809   27.8983  -74.5951 O.2       9 UNK        -0.5274 
     30 CA        -71.3876   27.2002  -76.6640 C.3       8 UNK         0.0270 
     31 CB        -70.9992   25.7593  -76.2848 C.3       8 UNK        -0.1976 
     32 N         -72.8467   27.2986  -76.7142 N.am      8 UNK        -0.4313 
     33 C         -73.5385   28.2689  -77.3312 C.2       8 UNK         0.5041 
     34 O         -73.0003   29.2261  -77.8931 O.2       8 UNK        -0.5577 
     35 CA        -75.0785   28.1458  -77.3277 C.3       7 UNK         0.0284 
     36 CB        -75.7502   28.9365  -78.4698 C.3       7 UNK        -0.1958 
     37 N         -75.5449   26.7544  -77.3055 N.am      7 UNK        -0.4454 
     38 C         -75.3034   25.7898  -78.2084 C.2       7 UNK         0.5089 
     39 O         -74.7457   25.9855  -79.2887 O.2       7 UNK        -0.5125 
     40 CA        -75.7440   24.3562  -77.8296 C.3       6 UNK         0.0408 
     41 CB        -74.7298   23.3000  -78.3169 C.3       6 UNK        -0.1791 
     42 N         -76.0412   24.1556  -76.3973 N.am      6 UNK        -0.4762 
     43 C         -75.1955   24.3419  -75.3695 C.2       6 UNK         0.5007 
     44 O         -74.0458   24.7579  -75.5194 O.2       6 UNK        -0.5032 
     45 CA        -75.7086   24.0861  -73.9399 C.3       5 UNK         0.0783 
     46 C46       -75.4306   25.3184  -73.0429 C.3       11 UNK        -0.0857 
     47 S47       -75.8017   24.9992  -71.2870 S.3       11 UNK        -0.2512 
     48 C48       -75.4314   26.6248  -70.5591 C.3       11 UNK         0.0225 
     49 N         -77.1322   23.7225  -73.9042 N.am      5 UNK        -0.4615 
     50 C         -77.5909   22.5208  -73.5328 C.2       4 UNK         0.5053 
     51 O         -76.8797   21.5244  -73.4008 O.2       4 UNK        -0.5105 
     52 CA        -79.0900   22.4165  -73.2217 C.3       4 UNK         0.0263 
     53 CB        -79.4196   23.1621  -71.9161 C.3       4 UNK        -0.1981 
     54 N         -79.9041   22.9626  -74.3061 N.am      4 UNK        -0.4224 
     55 C         -80.6409   22.2301  -75.1544 C.2       3 UNK         0.4895 
     56 O         -80.7112   21.0009  -75.1167 O.2       3 UNK        -0.5091 
     57 CA        -81.4534   22.9838  -76.2261 C.3       3 UNK         0.0250 
     58 CB        -82.9265   23.0931  -75.8011 C.3       3 UNK        -0.1996 
     59 N         -80.9321   24.3222  -76.5161 N.am      3 UNK        -0.4254 
     60 C         -79.7704   24.5472  -77.1485 C.2       2 UNK         0.5004 
     61 O         -79.0769   23.6506  -77.6258 O.2       2 UNK        -0.5226 
     62 CA        -79.2572   25.9972  -77.2239 C.3       2 UNK         0.0269 
     63 CB        -79.5335   26.6006  -78.6093 C.3       2 UNK        -0.1926 
     64 N         -79.7947   26.8848  -76.1911 N.am      2 UNK        -0.4687 
     65 C         -79.6646   26.7184  -74.8658 C.2       1 UNK         0.5165 
     66 O         -79.0013   25.8058  -74.3669 O.2       1 UNK        -0.5079 
     67 H67       -83.6801   29.4526  -75.5967 H         1 UNK         0.0900 
     68 H68       -84.7639   28.1550  -75.0909 H         1 UNK         0.0900 
     69 H69       -84.0228   28.1117  -76.6929 H         1 UNK         0.0900 
     70 H70       -81.6653   29.2834  -74.6645 H         1 UNK         0.2959 
     71 H71       -79.7465   28.5504  -73.8512 H         1 UNK         0.1079 
     72 H72       -81.4901   26.3602  -72.6067 H         1 UNK         0.0837 
     73 H73       -79.8593   26.6930  -72.1069 H         1 UNK         0.0837 
     74 H74       -80.1921   29.6115  -69.6717 H         1 UNK         0.0685 
     75 H75       -80.1286   27.8786  -69.4735 H         1 UNK         0.0685 
     76 H76       -77.9648   26.9968  -69.6579 H         1 UNK         0.1434 
     77 H77       -75.1338   28.5225  -72.4622 H         1 UNK         0.1329 
     78 H78       -78.9999   30.3635  -72.1015 H         1 UNK         0.1335 
     79 H79       -77.4213   30.3653  -74.3522 H         1 UNK         0.0680 
     80 H80       -76.9568   31.5826  -73.1901 H         1 UNK         0.0680 
     81 H81       -74.6750   31.4796  -72.0068 H         1 UNK         0.1032 
     82 H82       -74.0856   32.5200  -73.2630 H         1 UNK         0.1032 
     83 H83       -72.1654   31.7576  -72.1406 H         1 UNK         0.0461 
     84 H84       -71.9170   27.8322  -71.5691 H         1 UNK         0.3453 
     85 H85       -71.4930   28.5719  -73.0909 H         1 UNK         0.3453 
     86 H86       -72.4900   30.5895  -74.7844 H         1 UNK         0.2984 
     87 H87       -70.3065   31.5213  -76.1513 H         1 UNK         0.0554 
     88 H88       -68.1513   30.3213  -76.5658 H         1 UNK         0.0847 
     89 H89       -68.1932   29.6671  -74.9290 H         1 UNK         0.0847 
     90 H90       -68.0291   31.3981  -75.1858 H         1 UNK         0.0847 
     91 H91       -71.1679   29.6758  -77.0616 H         1 UNK         0.3141 
     92 H92       -70.9960   27.3908  -77.6657 H         1 UNK         0.0743 
     93 H93       -71.3773   25.4843  -75.2991 H         1 UNK         0.0784 
     94 H94       -71.3924   25.0401  -77.0038 H         1 UNK         0.0784 
     95 H95       -69.9153   25.6393  -76.2637 H         1 UNK         0.0784 
     96 H96       -73.3556   26.5362  -76.2768 H         1 UNK         0.3213 
     97 H97       -75.4107   28.5872  -76.3880 H         1 UNK         0.0855 
     98 H98       -75.5133   29.9989  -78.4000 H         1 UNK         0.0814 
     99 H99       -76.8354   28.8454  -78.4309 H         1 UNK         0.0814 
    100 H100      -75.4178   28.5941  -79.4501 H         1 UNK         0.0814 
    101 H101      -75.9912   26.4630  -76.4483 H         1 UNK         0.3105 
    102 H102      -76.6739   24.1824  -78.3695 H         1 UNK         0.0547 
    103 H103      -74.6125   23.3375  -79.4006 H         1 UNK         0.0837 
    104 H104      -73.7426   23.4533  -77.8796 H         1 UNK         0.0837 
    105 H105      -75.0559   22.2911  -78.0651 H         1 UNK         0.0837 
    106 H106      -76.9660   23.8029  -76.1870 H         1 UNK         0.3020 
    107 H107      -75.1008   23.2612  -73.5610 H         1 UNK         0.1245 
    108 H108      -76.0253   26.1677  -73.3833 H         1 UNK         0.0781 
    109 H109      -74.3845   25.6261  -73.1025 H         1 UNK         0.0781 
    110 H110      -74.4155   26.9229  -70.8238 H         1 UNK         0.0836 
    111 H111      -75.4482   26.5383  -69.4717 H         1 UNK         0.0836 
    112 H112      -77.7888   24.4959  -73.9897 H         1 UNK         0.3022 
    113 H113      -79.3215   21.3606  -73.0661 H         1 UNK         0.0747 
    114 H114      -80.4689   23.0416  -71.6465 H         1 UNK         0.0793 
    115 H115      -78.8248   22.7771  -71.0866 H         1 UNK         0.0793 
    116 H116      -79.2152   24.2308  -71.9920 H         1 UNK         0.0793 
    117 H117      -79.8725   23.9682  -74.4293 H         1 UNK         0.3047 
    118 H118      -81.4073   22.3956  -77.1453 H         1 UNK         0.0822 
    119 H119      -83.5245   23.5946  -76.5621 H         1 UNK         0.0807 
    120 H120      -83.0365   23.6485  -74.8688 H         1 UNK         0.0807 
    121 H121      -83.3621   22.1053  -75.6447 H         1 UNK         0.0807 
    122 H122      -81.4538   25.1065  -76.1357 H         1 UNK         0.2946 
    123 H123      -78.1792   25.9567  -77.0792 H         1 UNK         0.1144 
    124 H124      -79.1099   25.9772  -79.3983 H         1 UNK         0.0793 
    125 H125      -79.0876   27.5903  -78.7084 H         1 UNK         0.0793 
    126 H126      -80.6030   26.6913  -78.8035 H         1 UNK         0.0793 
    127 H127      -80.3719   27.6502  -76.5093 H         1 UNK         0.2896 
@<TRIPOS>BOND
     1    1    2 1    
     2    1   67 1    
     3    1   68 1    
     4    1   69 1    
     5    2    3 2    
     6    2    4 am   BACKBONE|DICT|INTERRES
     7    4    5 1    
     8    4   70 1    
     9    5    6 1    
    10    5   65 1    
    11    5   71 1    
    12    6    7 1    
    13    6   72 1    
    14    6   73 1    
    15    7    8 1    
    16    8    9 1    
    17    8   74 1    
    18    8   75 1    
    19    9   10 ar   
    20    9   14 ar   
    21   10   11 ar   
    22   10   76 1    
    23   11   12 ar   
    24   11   48 1    
    25   12   13 ar   
    26   12   77 1    
    27   13   14 ar   
    28   13   15 1    
    29   14   78 1    
    30   15   16 1    
    31   15   79 1    
    32   15   80 1    
    33   16   17 1    
    34   17   18 1    
    35   17   81 1    
    36   17   82 1    
    37   18   19 1    
    38   18   22 1    
    39   18   83 1    
    40   19   20 am   BACKBONE|DICT|INTERRES
    41   19   21 2    
    42   20   84 1    
    43   20   85 1    
    44   22   23 am   BACKBONE|DICT|INTERRES
    45   22   86 1    
    46   23   24 2    
    47   23   25 1    
    48   25   26 1    
    49   25   27 1    
    50   25   87 1    
    51   26   88 1    
    52   26   89 1    
    53   26   90 1    
    54   27   28 am   BACKBONE|DICT|INTERRES
    55   27   91 1    
    56   28   29 2    
    57   28   30 1    
    58   30   31 1    
    59   30   32 1    
    60   30   92 1    
    61   31   93 1    
    62   31   94 1    
    63   31   95 1    
    64   32   33 am   BACKBONE|DICT|INTERRES
    65   32   96 1    
    66   33   34 2    
    67   33   35 1    
    68   35   36 1    
    69   35   37 1    
    70   35   97 1    
    71   36   98 1    
    72   36   99 1    
    73   36  100 1    
    74   37   38 am   BACKBONE|DICT|INTERRES
    75   37  101 1    
    76   38   39 2    
    77   38   40 1    
    78   40   41 1    
    79   40   42 1    
    80   40  102 1    
    81   41  103 1    
    82   41  104 1    
    83   41  105 1    
    84   42   43 am   BACKBONE|DICT|INTERRES
    85   42  106 1    
    86   43   44 2    
    87   43   45 1    
    88   45   46 1    
    89   45   49 1    
    90   45  107 1    
    91   46   47 1    
    92   46  108 1    
    93   46  109 1    
    94   47   48 1    
    95   48  110 1    
    96   48  111 1    
    97   49   50 am   BACKBONE|DICT|INTERRES
    98   49  112 1    
    99   50   51 2    
   100   50   52 1    
   101   52   53 1    
   102   52   54 1    
   103   52  113 1    
   104   53  114 1    
   105   53  115 1    
   106   53  116 1    
   107   54   55 am   BACKBONE|DICT|INTERRES
   108   54  117 1    
   109   55   56 2    
   110   55   57 1    
   111   57   58 1    
   112   57   59 1    
   113   57  118 1    
   114   58  119 1    
   115   58  120 1    
   116   58  121 1    
   117   59   60 am   BACKBONE|DICT|INTERRES
   118   59  122 1    
   119   60   61 2    
   120   60   62 1    
   121   62   63 1    
   122   62   64 1    
   123   62  123 1    
   124   63  124 1    
   125   63  125 1    
   126   63  126 1    
   127   64   65 am   BACKBONE|DICT|INTERRES
   128   64  127 1    
   129   65   66 2    
@<TRIPOS>SUBSTRUCTURE
     1 UNK         1 GROUP             0       ****    0 ROOT    
