@<TRIPOS>MOLECULE
3R135
127   129    1
SMALL
USER_CHARGES


@<TRIPOS>ATOM
      1 CA        -83.1383   26.5362  -74.3702 C.3       0 UNK        -0.1998 
      2 C         -81.8805   27.2107  -74.8947 C.2       0 UNK         0.4909 
      3 O         -81.7864   27.4773  -76.0933 O.2       0 UNK        -0.5240 
      4 N         -80.9123   27.4812  -74.0079 N.am      1 UNK        -0.4739 
      5 CA        -79.6193   28.1160  -74.2984 C.3       1 UNK         0.0864 
      6 C6        -78.7455   28.2608  -73.0289 C.3       11 UNK        -0.0881 
      7 S7        -79.6068   29.0524  -71.6265 S.3       11 UNK        -0.2682 
      8 C8        -78.2274   29.8521  -70.7332 C.3       11 UNK         0.0289 
      9 C9        -76.9969   28.9651  -70.5449 C.ar      11 UNK        -0.0687 
     10 C10       -77.1116   27.6109  -70.2129 C.ar      11 UNK        -0.0823 
     11 C11       -75.9770   26.7985  -70.1323 C.ar      11 UNK        -0.0830 
     12 C12       -74.7118   27.3695  -70.3033 C.ar      11 UNK        -0.1021 
     13 C13       -74.5721   28.7315  -70.5922 C.ar      11 UNK        -0.0753 
     14 C14       -75.7256   29.5144  -70.7282 C.ar      11 UNK        -0.0933 
     15 C15       -73.1693   29.3063  -70.8031 C.3       11 UNK         0.0166 
     16 S16       -73.0159   31.0835  -70.4072 S.3       11 UNK        -0.2615 
     17 C17       -72.5816   31.8289  -72.0170 C.3       11 UNK        -0.0865 
     18 CA        -73.7979   31.9950  -72.9726 C.3       10 UNK         0.0862 
     19 C         -73.6319   33.2457  -73.8793 C.2       10 UNK         0.5551 
     20 N         -74.1192   34.3976  -73.4401 N.am      10 UNK        -0.7319 
     21 O         -73.0298   33.1897  -74.9504 O.2       10 UNK        -0.5018 
     22 N         -74.0002   30.7850  -73.7811 N.am      10 UNK        -0.4509 
     23 C         -75.1256   30.4682  -74.4344 C.2       10 UNK         0.4899 
     24 O         -76.1876   31.0771  -74.3022 O.2       10 UNK        -0.4839 
     25 CA        -75.0577   29.2911  -75.4292 C.3       9 UNK         0.0222 
     26 CB        -75.1579   29.8020  -76.8751 C.3       9 UNK        -0.1966 
     27 N         -73.8421   28.4802  -75.3003 N.am      9 UNK        -0.4218 
     28 C         -73.6444   27.5694  -74.3409 C.2       9 UNK         0.5020 
     29 O         -74.4828   27.2981  -73.4883 O.2       9 UNK        -0.5274 
     30 CA        -72.2932   26.8362  -74.3535 C.3       8 UNK         0.0270 
     31 CB        -72.0566   25.9922  -73.0868 C.3       8 UNK        -0.1976 
     32 N         -72.2120   25.9742  -75.5300 N.am      8 UNK        -0.4313 
     33 C         -71.8465   26.3922  -76.7494 C.2       8 UNK         0.5041 
     34 O         -71.4686   27.5411  -76.9861 O.2       8 UNK        -0.5577 
     35 CA        -71.9500   25.3820  -77.9055 C.3       7 UNK         0.0284 
     36 CB        -70.5988   24.6860  -78.1344 C.3       7 UNK        -0.1958 
     37 N         -72.9914   24.3694  -77.7092 N.am      7 UNK        -0.4454 
     38 C         -74.3058   24.6241  -77.6398 C.2       7 UNK         0.5089 
     39 O         -74.7868   25.7515  -77.7534 O.2       7 UNK        -0.5125 
     40 CA        -75.2480   23.4281  -77.4047 C.3       6 UNK         0.0408 
     41 CB        -74.5653   22.0451  -77.5182 C.3       6 UNK        -0.1791 
     42 N         -75.9691   23.5366  -76.1325 N.am      6 UNK        -0.4762 
     43 C         -75.4460   23.6149  -74.8970 C.2       6 UNK         0.5007 
     44 O         -74.2335   23.6634  -74.6788 O.2       6 UNK        -0.5032 
     45 CA        -76.4343   23.5809  -73.7079 C.3       5 UNK         0.0783 
     46 C46       -76.1395   24.6794  -72.6544 C.3       11 UNK        -0.0857 
     47 S47       -77.1406   24.4687  -71.1403 S.3       11 UNK        -0.2512 
     48 C48       -76.1197   25.3028  -69.8758 C.3       11 UNK         0.0225 
     49 N         -77.8241   23.6615  -74.1698 N.am      5 UNK        -0.4615 
     50 C         -78.6902   22.6450  -74.2145 C.2       4 UNK         0.5053 
     51 O         -78.3941   21.4773  -73.9614 O.2       4 UNK        -0.5105 
     52 CA        -80.1345   22.9923  -74.5965 C.3       4 UNK         0.0263 
     53 CB        -80.8353   23.7048  -73.4268 C.3       4 UNK        -0.1981 
     54 N         -80.1998   23.8418  -75.7905 N.am      4 UNK        -0.4224 
     55 C         -80.7101   23.4552  -76.9698 C.2       3 UNK         0.4895 
     56 O         -81.1153   22.3138  -77.1939 O.2       3 UNK        -0.5091 
     57 CA        -80.8276   24.5034  -78.0935 C.3       3 UNK         0.0250 
     58 CB        -82.3014   24.8790  -78.3232 C.3       3 UNK        -0.1996 
     59 N         -80.0607   25.7240  -77.8350 N.am      3 UNK        -0.4254 
     60 C         -78.7637   25.8748  -78.1413 C.2       2 UNK         0.5004 
     61 O         -78.1029   25.0162  -78.7241 O.2       2 UNK        -0.5226 
     62 CA        -78.0782   27.1912  -77.7188 C.3       2 UNK         0.0269 
     63 CB        -78.0279   28.1661  -78.9062 C.3       2 UNK        -0.1926 
     64 N         -78.6991   27.8627  -76.5701 N.am      2 UNK        -0.4687 
     65 C         -78.8524   27.3080  -75.3607 C.2       1 UNK         0.5165 
     66 O         -78.4793   26.1666  -75.0845 O.2       1 UNK        -0.5079 
     67 H67       -83.0743   26.3274  -73.3025 H         1 UNK         0.0900 
     68 H68       -83.3033   25.5938  -74.8914 H         1 UNK         0.0900 
     69 H69       -84.0040   27.1755  -74.5405 H         1 UNK         0.0900 
     70 H70       -81.0554   27.2509  -73.0349 H         1 UNK         0.2959 
     71 H71       -79.8243   29.1144  -74.6900 H         1 UNK         0.1079 
     72 H72       -78.4002   27.2827  -72.6864 H         1 UNK         0.0837 
     73 H73       -77.8456   28.8344  -73.2622 H         1 UNK         0.0837 
     74 H74       -77.9587   30.7575  -71.2801 H         1 UNK         0.0685 
     75 H75       -78.5820   30.1757  -69.7540 H         1 UNK         0.0685 
     76 H76       -78.0897   27.1723  -70.0713 H         1 UNK         0.1434 
     77 H77       -73.8309   26.7462  -70.2376 H         1 UNK         0.1329 
     78 H78       -75.6418   30.5582  -70.9896 H         1 UNK         0.1335 
     79 H79       -72.4579   28.7675  -70.1755 H         1 UNK         0.0680 
     80 H80       -72.8653   29.1214  -71.8325 H         1 UNK         0.0680 
     81 H81       -71.7747   31.2639  -72.4868 H         1 UNK         0.1032 
     82 H82       -72.1440   32.8003  -71.7761 H         1 UNK         0.1032 
     83 H83       -74.6959   32.1542  -72.3729 H         1 UNK         0.0461 
     84 H84       -74.0077   35.2248  -74.0056 H         1 UNK         0.3453 
     85 H85       -74.6025   34.4567  -72.5571 H         1 UNK         0.3453 
     86 H86       -73.1733   30.2495  -73.9923 H         1 UNK         0.2984 
     87 H87       -75.9223   28.6518  -75.2375 H         1 UNK         0.0554 
     88 H88       -75.1690   28.9754  -77.5863 H         1 UNK         0.0847 
     89 H89       -74.3233   30.4560  -77.1311 H         1 UNK         0.0847 
     90 H90       -76.0758   30.3719  -77.0249 H         1 UNK         0.0847 
     91 H91       -73.1176   28.5994  -76.0000 H         1 UNK         0.3141 
     92 H92       -71.5055   27.5916  -74.3953 H         1 UNK         0.0743 
     93 H93       -72.1061   26.6119  -72.1910 H         1 UNK         0.0784 
     94 H94       -72.8014   25.2040  -72.9784 H         1 UNK         0.0784 
     95 H95       -71.0732   25.5225  -73.1022 H         1 UNK         0.0784 
     96 H96       -72.6035   25.0444  -75.4303 H         1 UNK         0.3213 
     97 H97       -72.2022   25.9458  -78.8063 H         1 UNK         0.0855 
     98 H98       -69.8087   25.4179  -78.3088 H         1 UNK         0.0814 
     99 H99       -70.6300   24.0330  -79.0069 H         1 UNK         0.0814 
    100 H100      -70.3016   24.0856  -77.2736 H         1 UNK         0.0814 
    101 H101      -72.6835   23.4147  -77.5942 H         1 UNK         0.3105 
    102 H102      -76.0009   23.4792  -78.1915 H         1 UNK         0.0547 
    103 H103      -74.0817   21.9206  -78.4881 H         1 UNK         0.0837 
    104 H104      -73.8133   21.8856  -76.7447 H         1 UNK         0.0837 
    105 H105      -75.2982   21.2433  -77.4281 H         1 UNK         0.0837 
    106 H106      -76.9766   23.5453  -76.2036 H         1 UNK         0.3020 
    107 H107      -76.2654   22.6155  -73.2257 H         1 UNK         0.1245 
    108 H108      -76.3565   25.6656  -73.0663 H         1 UNK         0.0781 
    109 H109      -75.0852   24.6818  -72.3740 H         1 UNK         0.0781 
    110 H110      -75.1435   24.8175  -69.8307 H         1 UNK         0.0836 
    111 H111      -76.5807   25.1556  -68.8983 H         1 UNK         0.0836 
    112 H112      -78.1370   24.5994  -74.4190 H         1 UNK         0.3022 
    113 H113      -80.6584   22.0494  -74.7672 H         1 UNK         0.0747 
    114 H114      -81.8910   23.8679  -73.6410 H         1 UNK         0.0793 
    115 H115      -80.7803   23.1067  -72.5161 H         1 UNK         0.0793 
    116 H116      -80.3809   24.6718  -73.2075 H         1 UNK         0.0793 
    117 H117      -79.8219   24.7786  -75.7042 H         1 UNK         0.3047 
    118 H118      -80.4581   24.0365  -79.0093 H         1 UNK         0.0822 
    119 H119      -82.4062   25.5938  -79.1396 H         1 UNK         0.0807 
    120 H120      -82.7518   25.3186  -77.4332 H         1 UNK         0.0807 
    121 H121      -82.8924   24.0005  -78.5857 H         1 UNK         0.0807 
    122 H122      -80.5453   26.4732  -77.3482 H         1 UNK         0.2946 
    123 H123      -77.0554   26.9407  -77.4313 H         1 UNK         0.1144 
    124 H124      -77.4875   29.0780  -78.6554 H         1 UNK         0.0793 
    125 H125      -79.0279   28.4489  -79.2376 H         1 UNK         0.0793 
    126 H126      -77.5174   27.7140  -79.7579 H         1 UNK         0.0793 
    127 H127      -79.0818   28.7821  -76.7387 H         1 UNK         0.2896 
@<TRIPOS>BOND
     1    1    2 1    
     2    1   67 1    
     3    1   68 1    
     4    1   69 1    
     5    2    3 2    
     6    2    4 am   BACKBONE|DICT|INTERRES
     7    4    5 1    
     8    4   70 1    
     9    5    6 1    
    10    5   65 1    
    11    5   71 1    
    12    6    7 1    
    13    6   72 1    
    14    6   73 1    
    15    7    8 1    
    16    8    9 1    
    17    8   74 1    
    18    8   75 1    
    19    9   10 ar   
    20    9   14 ar   
    21   10   11 ar   
    22   10   76 1    
    23   11   12 ar   
    24   11   48 1    
    25   12   13 ar   
    26   12   77 1    
    27   13   14 ar   
    28   13   15 1    
    29   14   78 1    
    30   15   16 1    
    31   15   79 1    
    32   15   80 1    
    33   16   17 1    
    34   17   18 1    
    35   17   81 1    
    36   17   82 1    
    37   18   19 1    
    38   18   22 1    
    39   18   83 1    
    40   19   20 am   BACKBONE|DICT|INTERRES
    41   19   21 2    
    42   20   84 1    
    43   20   85 1    
    44   22   23 am   BACKBONE|DICT|INTERRES
    45   22   86 1    
    46   23   24 2    
    47   23   25 1    
    48   25   26 1    
    49   25   27 1    
    50   25   87 1    
    51   26   88 1    
    52   26   89 1    
    53   26   90 1    
    54   27   28 am   BACKBONE|DICT|INTERRES
    55   27   91 1    
    56   28   29 2    
    57   28   30 1    
    58   30   31 1    
    59   30   32 1    
    60   30   92 1    
    61   31   93 1    
    62   31   94 1    
    63   31   95 1    
    64   32   33 am   BACKBONE|DICT|INTERRES
    65   32   96 1    
    66   33   34 2    
    67   33   35 1    
    68   35   36 1    
    69   35   37 1    
    70   35   97 1    
    71   36   98 1    
    72   36   99 1    
    73   36  100 1    
    74   37   38 am   BACKBONE|DICT|INTERRES
    75   37  101 1    
    76   38   39 2    
    77   38   40 1    
    78   40   41 1    
    79   40   42 1    
    80   40  102 1    
    81   41  103 1    
    82   41  104 1    
    83   41  105 1    
    84   42   43 am   BACKBONE|DICT|INTERRES
    85   42  106 1    
    86   43   44 2    
    87   43   45 1    
    88   45   46 1    
    89   45   49 1    
    90   45  107 1    
    91   46   47 1    
    92   46  108 1    
    93   46  109 1    
    94   47   48 1    
    95   48  110 1    
    96   48  111 1    
    97   49   50 am   BACKBONE|DICT|INTERRES
    98   49  112 1    
    99   50   51 2    
   100   50   52 1    
   101   52   53 1    
   102   52   54 1    
   103   52  113 1    
   104   53  114 1    
   105   53  115 1    
   106   53  116 1    
   107   54   55 am   BACKBONE|DICT|INTERRES
   108   54  117 1    
   109   55   56 2    
   110   55   57 1    
   111   57   58 1    
   112   57   59 1    
   113   57  118 1    
   114   58  119 1    
   115   58  120 1    
   116   58  121 1    
   117   59   60 am   BACKBONE|DICT|INTERRES
   118   59  122 1    
   119   60   61 2    
   120   60   62 1    
   121   62   63 1    
   122   62   64 1    
   123   62  123 1    
   124   63  124 1    
   125   63  125 1    
   126   63  126 1    
   127   64   65 am   BACKBONE|DICT|INTERRES
   128   64  127 1    
   129   65   66 2    
@<TRIPOS>SUBSTRUCTURE
     1 UNK         1 GROUP             0       ****    0 ROOT    
