@<TRIPOS>MOLECULE
3R135
127   129    1
SMALL
USER_CHARGES


@<TRIPOS>ATOM
      1 CA        -79.6736   29.6427  -76.8882 C.3       0 UNK        -0.1998 
      2 C         -80.4008   28.8306  -75.8272 C.2       0 UNK         0.4909 
      3 O         -81.6247   28.7089  -75.8852 O.2       0 UNK        -0.5240 
      4 N         -79.6554   28.2785  -74.8589 N.am      1 UNK        -0.4739 
      5 CA        -80.1394   27.5126  -73.7042 C.3       1 UNK         0.0864 
      6 C6        -81.1537   28.3154  -72.8351 C.3       11 UNK        -0.0881 
      7 S7        -81.1553   27.8256  -71.0802 S.3       11 UNK        -0.2682 
      8 C8        -80.0212   29.0629  -70.3690 C.3       11 UNK         0.0289 
      9 C9        -78.5899   28.7920  -70.8021 C.ar      11 UNK        -0.0687 
     10 C10       -77.8662   27.7704  -70.1851 C.ar      11 UNK        -0.0823 
     11 C11       -76.5759   27.4538  -70.6151 C.ar      11 UNK        -0.0830 
     12 C12       -76.0023   28.1814  -71.6628 C.ar      11 UNK        -0.1021 
     13 C13       -76.7178   29.2064  -72.2900 C.ar      11 UNK        -0.0753 
     14 C14       -78.0069   29.5171  -71.8461 C.ar      11 UNK        -0.0933 
     15 C15       -76.1232   29.9468  -73.4784 C.3       11 UNK         0.0166 
     16 S16       -75.5320   31.6057  -73.0217 S.3       11 UNK        -0.2615 
     17 C17       -73.9788   31.2236  -72.1414 C.3       11 UNK        -0.0865 
     18 CA        -72.7238   31.5756  -72.9801 C.3       10 UNK         0.0862 
     19 C         -71.4337   31.3803  -72.1404 C.2       10 UNK         0.5551 
     20 N         -70.8099   32.4612  -71.6930 N.am      10 UNK        -0.7319 
     21 O         -71.0274   30.2568  -71.8519 O.2       10 UNK        -0.5018 
     22 N         -72.6774   30.8035  -74.2286 N.am      10 UNK        -0.4509 
     23 C         -71.8941   31.0807  -75.2778 C.2       10 UNK         0.4899 
     24 O         -71.1600   32.0684  -75.3435 O.2       10 UNK        -0.4839 
     25 CA        -71.9640   30.0853  -76.4544 C.3       9 UNK         0.0222 
     26 CB        -70.8263   30.2782  -77.4798 C.3       9 UNK        -0.1966 
     27 N         -72.0440   28.6851  -76.0176 N.am      9 UNK        -0.4218 
     28 C         -71.1432   28.0131  -75.2780 C.2       9 UNK         0.5020 
     29 O         -70.0781   28.4917  -74.8867 O.2       9 UNK        -0.5274 
     30 CA        -71.4804   26.5592  -74.8957 C.3       8 UNK         0.0270 
     31 CB        -71.9531   26.4916  -73.4333 C.3       8 UNK        -0.1976 
     32 N         -72.4912   25.9539  -75.7685 N.am      8 UNK        -0.4313 
     33 C         -72.2560   25.5736  -77.0351 C.2       8 UNK         0.5041 
     34 O         -71.1395   25.6104  -77.5543 O.2       8 UNK        -0.5577 
     35 CA        -73.4462   25.0849  -77.8859 C.3       7 UNK         0.0284 
     36 CB        -73.4121   23.5538  -78.0241 C.3       7 UNK        -0.1958 
     37 N         -74.7650   25.4799  -77.3879 N.am      7 UNK        -0.4454 
     38 C         -75.2060   26.7334  -77.2096 C.2       7 UNK         0.5089 
     39 O         -74.5509   27.7422  -77.4719 O.2       7 UNK        -0.5125 
     40 CA        -76.5887   26.8706  -76.5446 C.3       6 UNK         0.0408 
     41 CB        -77.6842   26.8518  -77.6208 C.3       6 UNK        -0.1791 
     42 N         -76.8516   25.8229  -75.5449 N.am      6 UNK        -0.4762 
     43 C         -76.0726   25.5731  -74.4776 C.2       6 UNK         0.5007 
     44 O         -75.0771   26.2470  -74.2159 O.2       6 UNK        -0.5032 
     45 CA        -76.3914   24.3340  -73.6141 C.3       5 UNK         0.0783 
     46 C46       -76.7806   24.6876  -72.1566 C.3       11 UNK        -0.0857 
     47 S47       -75.2924   25.0151  -71.1400 S.3       11 UNK        -0.2512 
     48 C48       -75.8305   26.2983  -69.9607 C.3       11 UNK         0.0225 
     49 N         -77.3872   23.4663  -74.2541 N.am      5 UNK        -0.4615 
     50 C         -77.0641   22.3943  -74.9922 C.2       4 UNK         0.5053 
     51 O         -75.9072   22.0304  -75.2052 O.2       4 UNK        -0.5105 
     52 CA        -78.2198   21.5976  -75.6146 C.3       4 UNK         0.0263 
     53 CB        -78.9424   20.7604  -74.5466 C.3       4 UNK        -0.1981 
     54 N         -79.1929   22.4313  -76.3187 N.am      4 UNK        -0.4224 
     55 C         -78.9487   23.2245  -77.3687 C.2       3 UNK         0.4895 
     56 O         -77.8306   23.3861  -77.8571 O.2       3 UNK        -0.5091 
     57 CA        -80.1462   23.9841  -77.9739 C.3       3 UNK         0.0250 
     58 CB        -80.8992   23.1060  -78.9922 C.3       3 UNK        -0.1996 
     59 N         -81.0614   24.5736  -76.9826 N.am      3 UNK        -0.4254 
     60 C         -81.8511   23.9561  -76.0899 C.2       2 UNK         0.5004 
     61 O         -81.9607   22.7315  -76.0035 O.2       2 UNK        -0.5226 
     62 CA        -82.6019   24.8649  -75.0986 C.3       2 UNK         0.0269 
     63 CB        -83.0799   24.1037  -73.8436 C.3       2 UNK        -0.1926 
     64 N         -81.8400   26.0584  -74.7047 N.am      2 UNK        -0.4687 
     65 C         -80.6379   26.1111  -74.1096 C.2       1 UNK         0.5165 
     66 O         -79.9187   25.1289  -73.9071 O.2       1 UNK        -0.5079 
     67 H67       -78.5998   29.6864  -76.7071 H         1 UNK         0.0900 
     68 H68       -79.8378   29.2074  -77.8735 H         1 UNK         0.0900 
     69 H69       -80.0542   30.6636  -76.9011 H         1 UNK         0.0900 
     70 H70       -78.6532   28.3952  -74.8902 H         1 UNK         0.2959 
     71 H71       -79.2489   27.3358  -73.0997 H         1 UNK         0.1079 
     72 H72       -82.1724   28.2385  -73.2176 H         1 UNK         0.0837 
     73 H73       -80.9209   29.3800  -72.8831 H         1 UNK         0.0837 
     74 H74       -80.3347   30.0680  -70.6554 H         1 UNK         0.0685 
     75 H75       -80.0878   29.0207  -69.2808 H         1 UNK         0.0685 
     76 H76       -78.3261   27.2014  -69.3884 H         1 UNK         0.1434 
     77 H77       -75.0125   27.9207  -72.0122 H         1 UNK         0.1329 
     78 H78       -78.5666   30.3020  -72.3362 H         1 UNK         0.1335 
     79 H79       -76.8842   30.0518  -74.2528 H         1 UNK         0.0680 
     80 H80       -75.3130   29.3713  -73.9289 H         1 UNK         0.0680 
     81 H81       -73.9840   31.7983  -71.2131 H         1 UNK         0.1032 
     82 H82       -73.9611   30.1754  -71.8398 H         1 UNK         0.1032 
     83 H83       -72.7964   32.6305  -73.2541 H         1 UNK         0.0461 
     84 H84       -69.9802   32.3513  -71.1310 H         1 UNK         0.3453 
     85 H85       -71.1417   33.3858  -71.9206 H         1 UNK         0.3453 
     86 H86       -73.2238   29.9574  -74.2488 H         1 UNK         0.2984 
     87 H87       -72.9040   30.2921  -76.9682 H         1 UNK         0.0554 
     88 H88       -70.8506   31.2815  -77.9069 H         1 UNK         0.0847 
     89 H89       -70.9141   29.5733  -78.3065 H         1 UNK         0.0847 
     90 H90       -69.8439   30.1429  -77.0263 H         1 UNK         0.0847 
     91 H91       -72.8771   28.1905  -76.3211 H         1 UNK         0.3141 
     92 H92       -70.5624   25.9738  -74.9811 H         1 UNK         0.0743 
     93 H93       -71.1653   26.8245  -72.7560 H         1 UNK         0.0784 
     94 H94       -72.8174   27.1323  -73.2560 H         1 UNK         0.0784 
     95 H95       -72.2233   25.4758  -73.1440 H         1 UNK         0.0784 
     96 H96       -73.4363   25.9114  -75.3999 H         1 UNK         0.3213 
     97 H97       -73.3291   25.5234  -78.8791 H         1 UNK         0.0855 
     98 H98       -73.5586   23.0591  -77.0627 H         1 UNK         0.0814 
     99 H99       -72.4537   23.2171  -78.4220 H         1 UNK         0.0814 
    100 H100      -74.1859   23.1984  -78.7051 H         1 UNK         0.0814 
    101 H101      -75.3933   24.7280  -77.1391 H         1 UNK         0.3105 
    102 H102      -76.6215   27.8314  -76.0276 H         1 UNK         0.0547 
    103 H103      -77.6216   27.7409  -78.2493 H         1 UNK         0.0837 
    104 H104      -78.6820   26.8236  -77.1873 H         1 UNK         0.0837 
    105 H105      -77.5845   25.9913  -78.2823 H         1 UNK         0.0837 
    106 H106      -77.6270   25.2004  -75.7189 H         1 UNK         0.3020 
    107 H107      -75.4491   23.7832  -73.5608 H         1 UNK         0.1245 
    108 H108      -77.2981   23.8474  -71.6910 H         1 UNK         0.0781 
    109 H109      -77.4865   25.5183  -72.1323 H         1 UNK         0.0781 
    110 H110      -74.9539   26.6906  -69.4437 H         1 UNK         0.0836 
    111 H111      -76.4472   25.8221  -69.1969 H         1 UNK         0.0836 
    112 H112      -78.3610   23.7272  -74.1321 H         1 UNK         0.3022 
    113 H113      -77.7888   20.9132  -76.3483 H         1 UNK         0.0747 
    114 H114      -78.2403   20.1229  -74.0073 H         1 UNK         0.0793 
    115 H115      -79.4460   21.3893  -73.8110 H         1 UNK         0.0793 
    116 H116      -79.6915   20.1081  -74.9958 H         1 UNK         0.0793 
    117 H117      -80.1621   22.3702  -76.0129 H         1 UNK         0.3047 
    118 H118      -79.7321   24.8275  -78.5274 H         1 UNK         0.0822 
    119 H119      -81.7062   23.6593  -79.4724 H         1 UNK         0.0807 
    120 H120      -81.3306   22.2175  -78.5304 H         1 UNK         0.0807 
    121 H121      -80.2271   22.7643  -79.7806 H         1 UNK         0.0807 
    122 H122      -81.0466   25.5829  -76.9366 H         1 UNK         0.2946 
    123 H123      -83.4872   25.2197  -75.6291 H         1 UNK         0.1144 
    124 H124      -82.2447   23.6700  -73.2921 H         1 UNK         0.0793 
    125 H125      -83.7525   23.2876  -74.1108 H         1 UNK         0.0793 
    126 H126      -83.6245   24.7601  -73.1649 H         1 UNK         0.0793 
    127 H127      -82.2683   26.9506  -74.9302 H         1 UNK         0.2896 
@<TRIPOS>BOND
     1    1    2 1    
     2    1   67 1    
     3    1   68 1    
     4    1   69 1    
     5    2    3 2    
     6    2    4 am   BACKBONE|DICT|INTERRES
     7    4    5 1    
     8    4   70 1    
     9    5    6 1    
    10    5   65 1    
    11    5   71 1    
    12    6    7 1    
    13    6   72 1    
    14    6   73 1    
    15    7    8 1    
    16    8    9 1    
    17    8   74 1    
    18    8   75 1    
    19    9   10 ar   
    20    9   14 ar   
    21   10   11 ar   
    22   10   76 1    
    23   11   12 ar   
    24   11   48 1    
    25   12   13 ar   
    26   12   77 1    
    27   13   14 ar   
    28   13   15 1    
    29   14   78 1    
    30   15   16 1    
    31   15   79 1    
    32   15   80 1    
    33   16   17 1    
    34   17   18 1    
    35   17   81 1    
    36   17   82 1    
    37   18   19 1    
    38   18   22 1    
    39   18   83 1    
    40   19   20 am   BACKBONE|DICT|INTERRES
    41   19   21 2    
    42   20   84 1    
    43   20   85 1    
    44   22   23 am   BACKBONE|DICT|INTERRES
    45   22   86 1    
    46   23   24 2    
    47   23   25 1    
    48   25   26 1    
    49   25   27 1    
    50   25   87 1    
    51   26   88 1    
    52   26   89 1    
    53   26   90 1    
    54   27   28 am   BACKBONE|DICT|INTERRES
    55   27   91 1    
    56   28   29 2    
    57   28   30 1    
    58   30   31 1    
    59   30   32 1    
    60   30   92 1    
    61   31   93 1    
    62   31   94 1    
    63   31   95 1    
    64   32   33 am   BACKBONE|DICT|INTERRES
    65   32   96 1    
    66   33   34 2    
    67   33   35 1    
    68   35   36 1    
    69   35   37 1    
    70   35   97 1    
    71   36   98 1    
    72   36   99 1    
    73   36  100 1    
    74   37   38 am   BACKBONE|DICT|INTERRES
    75   37  101 1    
    76   38   39 2    
    77   38   40 1    
    78   40   41 1    
    79   40   42 1    
    80   40  102 1    
    81   41  103 1    
    82   41  104 1    
    83   41  105 1    
    84   42   43 am   BACKBONE|DICT|INTERRES
    85   42  106 1    
    86   43   44 2    
    87   43   45 1    
    88   45   46 1    
    89   45   49 1    
    90   45  107 1    
    91   46   47 1    
    92   46  108 1    
    93   46  109 1    
    94   47   48 1    
    95   48  110 1    
    96   48  111 1    
    97   49   50 am   BACKBONE|DICT|INTERRES
    98   49  112 1    
    99   50   51 2    
   100   50   52 1    
   101   52   53 1    
   102   52   54 1    
   103   52  113 1    
   104   53  114 1    
   105   53  115 1    
   106   53  116 1    
   107   54   55 am   BACKBONE|DICT|INTERRES
   108   54  117 1    
   109   55   56 2    
   110   55   57 1    
   111   57   58 1    
   112   57   59 1    
   113   57  118 1    
   114   58  119 1    
   115   58  120 1    
   116   58  121 1    
   117   59   60 am   BACKBONE|DICT|INTERRES
   118   59  122 1    
   119   60   61 2    
   120   60   62 1    
   121   62   63 1    
   122   62   64 1    
   123   62  123 1    
   124   63  124 1    
   125   63  125 1    
   126   63  126 1    
   127   64   65 am   BACKBONE|DICT|INTERRES
   128   64  127 1    
   129   65   66 2    
@<TRIPOS>SUBSTRUCTURE
     1 UNK         1 GROUP             0       ****    0 ROOT    
