@<TRIPOS>MOLECULE
3R135
127   129    1
SMALL
USER_CHARGES


@<TRIPOS>ATOM
      1 CA        -82.0316   24.5011  -71.7386 C.3       0 UNK        -0.1998 
      2 C         -82.1401   25.5851  -72.8006 C.2       0 UNK         0.4909 
      3 O         -83.2512   25.9889  -73.1457 O.2       0 UNK        -0.5240 
      4 N         -80.9994   26.0545  -73.3147 N.am      1 UNK        -0.4739 
      5 CA        -80.8995   27.0804  -74.3530 C.3       1 UNK         0.0864 
      6 C6        -80.2325   28.3728  -73.8202 C.3       11 UNK        -0.0881 
      7 S7        -81.2702   29.3181  -72.6578 S.3       11 UNK        -0.2682 
      8 C8        -80.5790   28.8416  -71.0354 C.3       11 UNK         0.0289 
      9 C9        -79.0904   29.1393  -70.8463 C.ar      11 UNK        -0.0687 
     10 C10       -78.3100   28.2360  -70.1180 C.ar      11 UNK        -0.0823 
     11 C11       -76.9464   28.4682  -69.9164 C.ar      11 UNK        -0.0830 
     12 C12       -76.3649   29.6287  -70.4282 C.ar      11 UNK        -0.1021 
     13 C13       -77.1242   30.5380  -71.1688 C.ar      11 UNK        -0.0753 
     14 C14       -78.4886   30.2940  -71.3658 C.ar      11 UNK        -0.0933 
     15 C15       -76.4673   31.7814  -71.7535 C.3       11 UNK         0.0166 
     16 S16       -75.7008   31.4458  -73.3729 S.3       11 UNK        -0.2615 
     17 C17       -74.1993   30.5169  -72.8992 C.3       11 UNK        -0.0865 
     18 CA        -72.9670   30.8492  -73.7887 C.3       10 UNK         0.0862 
     19 C         -72.1825   32.1106  -73.3170 C.2       10 UNK         0.5551 
     20 N         -70.8552   32.1173  -73.3674 N.am      10 UNK        -0.7319 
     21 O         -72.7761   33.1045  -72.9071 O.2       10 UNK        -0.5018 
     22 N         -72.1043   29.6653  -73.9490 N.am      10 UNK        -0.4509 
     23 C         -72.0555   28.8789  -75.0295 C.2       10 UNK         0.4899 
     24 O         -72.7281   29.0739  -76.0447 O.2       10 UNK        -0.4839 
     25 CA        -71.1041   27.6684  -74.9824 C.3       9 UNK         0.0222 
     26 CB        -70.6722   27.2490  -73.5613 C.3       9 UNK        -0.1966 
     27 N         -71.7757   26.5539  -75.6403 N.am      9 UNK        -0.4218 
     28 C         -71.2214   25.6578  -76.4641 C.2       9 UNK         0.5020 
     29 O         -70.0117   25.5677  -76.6783 O.2       9 UNK        -0.5274 
     30 CA        -72.2008   24.7324  -77.2113 C.3       8 UNK         0.0270 
     31 CB        -72.7039   23.6045  -76.2948 C.3       8 UNK        -0.1976 
     32 N         -73.3448   25.4829  -77.7348 N.am      8 UNK        -0.4313 
     33 C         -73.2816   26.4058  -78.7046 C.2       8 UNK         0.5041 
     34 O         -72.2958   26.5760  -79.4227 O.2       8 UNK        -0.5577 
     35 CA        -74.4957   27.3395  -78.8659 C.3       7 UNK         0.0284 
     36 CB        -75.5784   26.7218  -79.7752 C.3       7 UNK        -0.1958 
     37 N         -75.0318   27.8013  -77.5747 N.am      7 UNK        -0.4454 
     38 C         -75.7202   27.0987  -76.6685 C.2       7 UNK         0.5089 
     39 O         -76.0944   25.9377  -76.8508 O.2       7 UNK        -0.5125 
     40 CA        -75.9897   27.7969  -75.3279 C.3       6 UNK         0.0408 
     41 CB        -77.1427   28.8009  -75.4497 C.3       6 UNK        -0.1791 
     42 N         -76.2670   26.8120  -74.2757 N.am      6 UNK        -0.4762 
     43 C         -75.2954   26.1332  -73.6482 C.2       6 UNK         0.5007 
     44 O         -74.0998   26.3026  -73.8895 O.2       6 UNK        -0.5032 
     45 CA        -75.6969   25.0526  -72.6277 C.3       5 UNK         0.0783 
     46 C46       -76.2549   25.6235  -71.2978 C.3       11 UNK        -0.0857 
     47 S47       -75.0151   26.5115  -70.2978 S.3       11 UNK        -0.2512 
     48 C48       -76.0913   27.4553  -69.1677 C.3       11 UNK         0.0225 
     49 N         -76.5116   24.0130  -73.2682 N.am      5 UNK        -0.4615 
     50 C         -77.8397   23.8416  -73.2310 C.2       4 UNK         0.5053 
     51 O         -78.6233   24.5346  -72.5806 O.2       4 UNK        -0.5105 
     52 CA        -78.3786   22.7320  -74.1407 C.3       4 UNK         0.0263 
     53 CB        -79.8725   22.4268  -73.9190 C.3       4 UNK        -0.1981 
     54 N         -78.1634   23.1596  -75.5171 N.am      4 UNK        -0.4224 
     55 C         -77.8991   22.3621  -76.5584 C.2       3 UNK         0.4895 
     56 O         -77.8174   21.1357  -76.4708 O.2       3 UNK        -0.5091 
     57 CA        -77.6514   23.0456  -77.9189 C.3       3 UNK         0.0250 
     58 CB        -78.1074   22.1889  -79.1195 C.3       3 UNK        -0.1996 
     59 N         -78.1833   24.4123  -77.9893 N.am      3 UNK        -0.4254 
     60 C         -79.4675   24.7973  -78.0086 C.2       2 UNK         0.5004 
     61 O         -80.4318   24.0304  -78.0465 O.2       2 UNK        -0.5226 
     62 CA        -79.7149   26.3155  -77.9455 C.3       2 UNK         0.0269 
     63 CB        -80.4554   26.8069  -79.2002 C.3       2 UNK        -0.1926 
     64 N         -80.4669   26.7090  -76.7483 N.am      2 UNK        -0.4687 
     65 C         -80.0464   26.5049  -75.4925 C.2       1 UNK         0.5165 
     66 O         -78.9781   25.9547  -75.2209 O.2       1 UNK        -0.5079 
     67 H67       -82.4138   23.5569  -72.1251 H         1 UNK         0.0900 
     68 H68       -82.6181   24.7743  -70.8619 H         1 UNK         0.0900 
     69 H69       -81.0018   24.3470  -71.4178 H         1 UNK         0.0900 
     70 H70       -80.1129   25.6246  -73.0526 H         1 UNK         0.2959 
     71 H71       -81.8860   27.3259  -74.7520 H         1 UNK         0.1079 
     72 H72       -79.2724   28.1410  -73.3560 H         1 UNK         0.0837 
     73 H73       -80.0123   29.0530  -74.6450 H         1 UNK         0.0837 
     74 H74       -81.1356   29.3638  -70.2565 H         1 UNK         0.0685 
     75 H75       -80.7724   27.7777  -70.8896 H         1 UNK         0.0685 
     76 H76       -78.7619   27.3378  -69.7193 H         1 UNK         0.1434 
     77 H77       -75.3122   29.8075  -70.2638 H         1 UNK         0.1329 
     78 H78       -79.0795   31.0011  -71.9312 H         1 UNK         0.1335 
     79 H79       -77.2117   32.5692  -71.8783 H         1 UNK         0.0680 
     80 H80       -75.7201   32.1789  -71.0649 H         1 UNK         0.0680 
     81 H81       -74.4534   29.4578  -72.9728 H         1 UNK         0.1032 
     82 H82       -73.9598   30.6879  -71.8494 H         1 UNK         0.1032 
     83 H83       -73.3360   31.1294  -74.7768 H         1 UNK         0.0461 
     84 H84       -70.3567   32.9390  -73.0630 H         1 UNK         0.3453 
     85 H85       -70.3483   31.3319  -73.7423 H         1 UNK         0.3453 
     86 H86       -71.5193   29.4411  -73.1568 H         1 UNK         0.2984 
     87 H87       -70.2158   27.9453  -75.5533 H         1 UNK         0.0554 
     88 H88       -70.0536   26.3519  -73.5902 H         1 UNK         0.0847 
     89 H89       -71.5320   27.0335  -72.9248 H         1 UNK         0.0847 
     90 H90       -70.0779   28.0240  -73.0766 H         1 UNK         0.0847 
     91 H91       -72.7772   26.5242  -75.4830 H         1 UNK         0.3141 
     92 H92       -71.6698   24.2842  -78.0538 H         1 UNK         0.0743 
     93 H93       -71.8694   23.0229  -75.9008 H         1 UNK         0.0784 
     94 H94       -73.3525   22.9147  -76.8353 H         1 UNK         0.0784 
     95 H95       -73.2631   23.9917  -75.4420 H         1 UNK         0.0784 
     96 H96       -74.2254   25.4044  -77.2357 H         1 UNK         0.3213 
     97 H97       -74.1321   28.2407  -79.3627 H         1 UNK         0.0855 
     98 H98       -75.1926   26.5802  -80.7854 H         1 UNK         0.0814 
     99 H99       -76.4533   27.3675  -79.8501 H         1 UNK         0.0814 
    100 H100      -75.9076   25.7442  -79.4239 H         1 UNK         0.0814 
    101 H101      -74.6899   28.7099  -77.2846 H         1 UNK         0.3105 
    102 H102      -75.1001   28.3610  -75.0454 H         1 UNK         0.0547 
    103 H103      -76.8443   29.6567  -76.0561 H         1 UNK         0.0837 
    104 H104      -78.0164   28.3660  -75.9283 H         1 UNK         0.0837 
    105 H105      -77.4352   29.1901  -74.4749 H         1 UNK         0.0837 
    106 H106      -77.2325   26.5245  -74.1603 H         1 UNK         0.3020 
    107 H107      -74.7700   24.5366  -72.3697 H         1 UNK         0.1245 
    108 H108      -76.6486   24.8161  -70.6788 H         1 UNK         0.0781 
    109 H109      -77.0946   26.2837  -71.5100 H         1 UNK         0.0781 
    110 H110      -75.4700   27.9748  -68.4367 H         1 UNK         0.0836 
    111 H111      -76.7149   26.7622  -68.6007 H         1 UNK         0.0836 
    112 H112      -75.9904   23.3994  -73.8788 H         1 UNK         0.3022 
    113 H113      -77.8026   21.8279  -73.9325 H         1 UNK         0.0747 
    114 H114      -80.1952   21.5798  -74.5244 H         1 UNK         0.0793 
    115 H115      -80.0718   22.1767  -72.8763 H         1 UNK         0.0793 
    116 H116      -80.4984   23.2795  -74.1825 H         1 UNK         0.0793 
    117 H117      -78.2218   24.1650  -75.6639 H         1 UNK         0.3047 
    118 H118      -76.5683   23.1547  -77.9938 H         1 UNK         0.0822 
    119 H119      -77.9216   22.6988  -80.0647 H         1 UNK         0.0807 
    120 H120      -79.1697   21.9493  -79.0685 H         1 UNK         0.0807 
    121 H121      -77.5657   21.2428  -79.1515 H         1 UNK         0.0807 
    122 H122      -77.4777   25.1287  -77.8311 H         1 UNK         0.2946 
    123 H123      -78.7490   26.8245  -77.9075 H         1 UNK         0.1144 
    124 H124      -79.9083   26.5383  -80.1051 H         1 UNK         0.0793 
    125 H125      -80.5643   27.8916  -79.1992 H         1 UNK         0.0793 
    126 H126      -81.4509   26.3682  -79.2793 H         1 UNK         0.0793 
    127 H127      -81.3569   27.1599  -76.9039 H         1 UNK         0.2896 
@<TRIPOS>BOND
     1    1    2 1    
     2    1   67 1    
     3    1   68 1    
     4    1   69 1    
     5    2    3 2    
     6    2    4 am   BACKBONE|DICT|INTERRES
     7    4    5 1    
     8    4   70 1    
     9    5    6 1    
    10    5   65 1    
    11    5   71 1    
    12    6    7 1    
    13    6   72 1    
    14    6   73 1    
    15    7    8 1    
    16    8    9 1    
    17    8   74 1    
    18    8   75 1    
    19    9   10 ar   
    20    9   14 ar   
    21   10   11 ar   
    22   10   76 1    
    23   11   12 ar   
    24   11   48 1    
    25   12   13 ar   
    26   12   77 1    
    27   13   14 ar   
    28   13   15 1    
    29   14   78 1    
    30   15   16 1    
    31   15   79 1    
    32   15   80 1    
    33   16   17 1    
    34   17   18 1    
    35   17   81 1    
    36   17   82 1    
    37   18   19 1    
    38   18   22 1    
    39   18   83 1    
    40   19   20 am   BACKBONE|DICT|INTERRES
    41   19   21 2    
    42   20   84 1    
    43   20   85 1    
    44   22   23 am   BACKBONE|DICT|INTERRES
    45   22   86 1    
    46   23   24 2    
    47   23   25 1    
    48   25   26 1    
    49   25   27 1    
    50   25   87 1    
    51   26   88 1    
    52   26   89 1    
    53   26   90 1    
    54   27   28 am   BACKBONE|DICT|INTERRES
    55   27   91 1    
    56   28   29 2    
    57   28   30 1    
    58   30   31 1    
    59   30   32 1    
    60   30   92 1    
    61   31   93 1    
    62   31   94 1    
    63   31   95 1    
    64   32   33 am   BACKBONE|DICT|INTERRES
    65   32   96 1    
    66   33   34 2    
    67   33   35 1    
    68   35   36 1    
    69   35   37 1    
    70   35   97 1    
    71   36   98 1    
    72   36   99 1    
    73   36  100 1    
    74   37   38 am   BACKBONE|DICT|INTERRES
    75   37  101 1    
    76   38   39 2    
    77   38   40 1    
    78   40   41 1    
    79   40   42 1    
    80   40  102 1    
    81   41  103 1    
    82   41  104 1    
    83   41  105 1    
    84   42   43 am   BACKBONE|DICT|INTERRES
    85   42  106 1    
    86   43   44 2    
    87   43   45 1    
    88   45   46 1    
    89   45   49 1    
    90   45  107 1    
    91   46   47 1    
    92   46  108 1    
    93   46  109 1    
    94   47   48 1    
    95   48  110 1    
    96   48  111 1    
    97   49   50 am   BACKBONE|DICT|INTERRES
    98   49  112 1    
    99   50   51 2    
   100   50   52 1    
   101   52   53 1    
   102   52   54 1    
   103   52  113 1    
   104   53  114 1    
   105   53  115 1    
   106   53  116 1    
   107   54   55 am   BACKBONE|DICT|INTERRES
   108   54  117 1    
   109   55   56 2    
   110   55   57 1    
   111   57   58 1    
   112   57   59 1    
   113   57  118 1    
   114   58  119 1    
   115   58  120 1    
   116   58  121 1    
   117   59   60 am   BACKBONE|DICT|INTERRES
   118   59  122 1    
   119   60   61 2    
   120   60   62 1    
   121   62   63 1    
   122   62   64 1    
   123   62  123 1    
   124   63  124 1    
   125   63  125 1    
   126   63  126 1    
   127   64   65 am   BACKBONE|DICT|INTERRES
   128   64  127 1    
   129   65   66 2    
@<TRIPOS>SUBSTRUCTURE
     1 UNK         1 GROUP             0       ****    0 ROOT    
