@<TRIPOS>MOLECULE
3R135
127   129    1
SMALL
USER_CHARGES


@<TRIPOS>ATOM
      1 CA        -78.6091   25.9259  -67.6638 C.3       0 UNK        -0.1998 
      2 C         -79.8084   26.0525  -68.5910 C.2       0 UNK         0.4909 
      3 O         -80.8799   25.5302  -68.2819 O.2       0 UNK        -0.5240 
      4 N         -79.6367   26.7423  -69.7262 N.am      1 UNK        -0.4739 
      5 CA        -80.6822   26.9723  -70.7343 C.3       1 UNK         0.0864 
      6 C6        -80.3218   28.1463  -71.6778 C.3       11 UNK        -0.0881 
      7 S7        -80.1001   29.7245  -70.7854 S.3       11 UNK        -0.2682 
      8 C8        -80.5721   30.9386  -72.0599 C.3       11 UNK         0.0289 
      9 C9        -79.5655   30.9680  -73.2005 C.ar      11 UNK        -0.0687 
     10 C10       -79.7707   30.1832  -74.3387 C.ar      11 UNK        -0.0823 
     11 C11       -78.8200   30.1558  -75.3620 C.ar      11 UNK        -0.0830 
     12 C12       -77.6836   30.9630  -75.2668 C.ar      11 UNK        -0.1021 
     13 C13       -77.4675   31.7549  -74.1355 C.ar      11 UNK        -0.0753 
     14 C14       -78.4140   31.7560  -73.1056 C.ar      11 UNK        -0.0933 
     15 C15       -76.1959   32.5844  -74.0187 C.3       11 UNK         0.0166 
     16 S16       -74.7014   31.5404  -74.0238 S.3       11 UNK        -0.2615 
     17 C17       -74.9082   30.5763  -72.4847 C.3       11 UNK        -0.0865 
     18 CA        -73.6304   30.6028  -71.5968 C.3       10 UNK         0.0862 
     19 C         -73.8698   30.0071  -70.1740 C.2       10 UNK         0.5551 
     20 N         -72.8809   29.3823  -69.5460 N.am      10 UNK        -0.7319 
     21 O         -74.9537   30.1436  -69.6122 O.2       10 UNK        -0.5018 
     22 N         -72.4368   30.0865  -72.2968 N.am      10 UNK        -0.4509 
     23 C         -72.2489   28.8296  -72.7203 C.2       10 UNK         0.4899 
     24 O         -73.0510   27.9094  -72.5434 O.2       10 UNK        -0.4839 
     25 CA        -70.9040   28.5574  -73.4195 C.3       9 UNK         0.0222 
     26 CB        -69.7718   28.4442  -72.3836 C.3       9 UNK        -0.1966 
     27 N         -70.9342   27.3303  -74.2189 N.am      9 UNK        -0.4218 
     28 C         -71.5929   27.1842  -75.3748 C.2       9 UNK         0.5020 
     29 O         -72.1867   28.0975  -75.9540 O.2       9 UNK        -0.5274 
     30 CA        -71.5799   25.7759  -75.9820 C.3       8 UNK         0.0270 
     31 CB        -72.3728   24.7794  -75.1122 C.3       8 UNK        -0.1976 
     32 N         -72.1459   25.8281  -77.3289 N.am      8 UNK        -0.4313 
     33 C         -71.8764   24.9655  -78.3158 C.2       8 UNK         0.5041 
     34 O         -71.1123   24.0062  -78.1880 O.2       8 UNK        -0.5577 
     35 CA        -72.5745   25.2123  -79.6644 C.3       7 UNK         0.0284 
     36 CB        -72.4907   24.0058  -80.6212 C.3       7 UNK        -0.1958 
     37 N         -73.9749   25.5793  -79.4573 N.am      7 UNK        -0.4454 
     38 C         -74.6666   26.4363  -80.2215 C.2       7 UNK         0.5089 
     39 O         -74.1928   27.0017  -81.2079 O.2       7 UNK        -0.5125 
     40 CA        -76.1336   26.7237  -79.8369 C.3       6 UNK         0.0408 
     41 CB        -77.0895   25.9311  -80.7423 C.3       6 UNK        -0.1791 
     42 N         -76.4533   26.4266  -78.4398 N.am      6 UNK        -0.4762 
     43 C         -75.9180   27.0412  -77.3748 C.2       6 UNK         0.5007 
     44 O         -75.1648   28.0102  -77.4621 O.2       6 UNK        -0.5032 
     45 CA        -76.2474   26.4611  -75.9802 C.3       5 UNK         0.0783 
     46 C46       -77.2596   27.3567  -75.2265 C.3       11 UNK        -0.0857 
     47 S47       -78.9143   27.4626  -76.0118 S.3       11 UNK        -0.2512 
     48 C48       -78.9882   29.2071  -76.5399 C.3       11 UNK         0.0225 
     49 N         -76.6650   25.0503  -75.9727 N.am      5 UNK        -0.4615 
     50 C         -76.0016   24.0144  -76.5136 C.2       4 UNK         0.5053 
     51 O         -74.9311   24.1313  -77.1078 O.2       4 UNK        -0.5105 
     52 CA        -76.6352   22.6126  -76.4160 C.3       4 UNK         0.0263 
     53 CB        -75.8988   21.7705  -75.3618 C.3       4 UNK        -0.1981 
     54 N         -78.0658   22.6213  -76.1043 N.am      4 UNK        -0.4224 
     55 C         -79.0293   23.1619  -76.8636 C.2       3 UNK         0.4895 
     56 O         -78.8318   23.6175  -77.9911 O.2       3 UNK        -0.5091 
     57 CA        -80.4440   23.2459  -76.2543 C.3       3 UNK         0.0250 
     58 CB        -81.3768   22.2252  -76.9272 C.3       3 UNK        -0.1996 
     59 N         -80.5242   23.0765  -74.7937 N.am      3 UNK        -0.4254 
     60 C         -79.9064   23.8370  -73.8775 C.2       2 UNK         0.5004 
     61 O         -79.0868   24.7147  -74.1531 O.2       2 UNK        -0.5226 
     62 CA        -80.2001   23.5174  -72.4033 C.3       2 UNK         0.0269 
     63 CB        -79.2057   22.4703  -71.8751 C.3       2 UNK        -0.1926 
     64 N         -80.1029   24.7232  -71.5787 N.am      2 UNK        -0.4687 
     65 C         -81.0131   25.7079  -71.5593 C.2       1 UNK         0.5165 
     66 O         -82.0859   25.6485  -72.1631 O.2       1 UNK        -0.5079 
     67 H67       -77.7329   26.4411  -68.0575 H         1 UNK         0.0900 
     68 H68       -78.3516   24.8763  -67.5244 H         1 UNK         0.0900 
     69 H69       -78.8426   26.3523  -66.6886 H         1 UNK         0.0900 
     70 H70       -78.7441   27.1749  -69.9183 H         1 UNK         0.2959 
     71 H71       -81.6001   27.2397  -70.2053 H         1 UNK         0.1079 
     72 H72       -79.4102   27.9302  -72.2394 H         1 UNK         0.0837 
     73 H73       -81.1125   28.2800  -72.4184 H         1 UNK         0.0837 
     74 H74       -81.5722   30.7121  -72.4331 H         1 UNK         0.0685 
     75 H75       -80.6358   31.9258  -71.6000 H         1 UNK         0.0685 
     76 H76       -80.6481   29.5556  -74.4118 H         1 UNK         0.1434 
     77 H77       -76.9392   30.9424  -76.0516 H         1 UNK         0.1329 
     78 H78       -78.2480   32.3540  -72.2199 H         1 UNK         0.1335 
     79 H79       -76.1454   33.2776  -74.8594 H         1 UNK         0.0680 
     80 H80       -76.2046   33.1952  -73.1145 H         1 UNK         0.0680 
     81 H81       -75.1809   29.5525  -72.7454 H         1 UNK         0.1032 
     82 H82       -75.7598   30.9777  -71.9329 H         1 UNK         0.1032 
     83 H83       -73.4074   31.6526  -71.4025 H         1 UNK         0.0461 
     84 H84       -73.0382   29.0113  -68.6223 H         1 UNK         0.3453 
     85 H85       -71.9847   29.2711  -69.9912 H         1 UNK         0.3453 
     86 H86       -71.7118   30.7678  -72.4698 H         1 UNK         0.2984 
     87 H87       -70.6866   29.3950  -74.0860 H         1 UNK         0.0554 
     88 H88       -69.9462   27.6275  -71.6816 H         1 UNK         0.0847 
     89 H89       -69.6767   29.3603  -71.7992 H         1 UNK         0.0847 
     90 H90       -68.8087   28.2726  -72.8649 H         1 UNK         0.0847 
     91 H91       -70.5039   26.5163  -73.8047 H         1 UNK         0.3141 
     92 H92       -70.5387   25.4524  -76.0473 H         1 UNK         0.0743 
     93 H93       -72.4054   23.7896  -75.5680 H         1 UNK         0.0784 
     94 H94       -71.9213   24.6639  -74.1265 H         1 UNK         0.0784 
     95 H95       -73.4009   25.1079  -74.9616 H         1 UNK         0.0784 
     96 H96       -72.7284   26.6396  -77.5047 H         1 UNK         0.3213 
     97 H97       -72.0456   26.0497  -80.1246 H         1 UNK         0.0855 
     98 H98       -72.9847   23.1289  -80.2010 H         1 UNK         0.0814 
     99 H99       -71.4536   23.7344  -80.8225 H         1 UNK         0.0814 
    100 H100      -72.9570   24.2262  -81.5815 H         1 UNK         0.0814 
    101 H101      -74.4256   25.1512  -78.6497 H         1 UNK         0.3105 
    102 H102      -76.3114   27.7887  -79.9990 H         1 UNK         0.0547 
    103 H103      -76.9011   26.1473  -81.7949 H         1 UNK         0.0837 
    104 H104      -76.9755   24.8550  -80.6044 H         1 UNK         0.0837 
    105 H105      -78.1302   26.1863  -80.5418 H         1 UNK         0.0837 
    106 H106      -77.0736   25.6456  -78.2695 H         1 UNK         0.3020 
    107 H107      -75.3090   26.4976  -75.4233 H         1 UNK         0.1245 
    108 H108      -76.8348   28.3519  -75.0947 H         1 UNK         0.0781 
    109 H109      -77.4016   26.9754  -74.2140 H         1 UNK         0.0781 
    110 H110      -78.2229   29.3820  -77.2980 H         1 UNK         0.0836 
    111 H111      -79.9489   29.3944  -77.0214 H         1 UNK         0.0836 
    112 H112      -77.5426   24.8673  -75.4944 H         1 UNK         0.3022 
    113 H113      -76.5104   22.1343  -77.3896 H         1 UNK         0.0747 
    114 H114      -76.2708   20.7460  -75.3398 H         1 UNK         0.0793 
    115 H115      -74.8306   21.7205  -75.5788 H         1 UNK         0.0793 
    116 H116      -76.0081   22.1913  -74.3612 H         1 UNK         0.0793 
    117 H117      -78.3293   22.2820  -75.1914 H         1 UNK         0.3047 
    118 H118      -80.8162   24.2479  -76.4787 H         1 UNK         0.0822 
    119 H119      -82.4086   22.3511  -76.5984 H         1 UNK         0.0807 
    120 H120      -81.0757   21.1996  -76.7099 H         1 UNK         0.0807 
    121 H121      -81.3702   22.3435  -78.0119 H         1 UNK         0.0807 
    122 H122      -81.1525   22.3546  -74.4701 H         1 UNK         0.2946 
    123 H123      -81.2143   23.1194  -72.3206 H         1 UNK         0.1144 
    124 H124      -79.2762   21.5406  -72.4413 H         1 UNK         0.0793 
    125 H125      -79.4041   22.2267  -70.8311 H         1 UNK         0.0793 
    126 H126      -78.1745   22.8193  -71.9479 H         1 UNK         0.0793 
    127 H127      -79.2374   24.8680  -71.0805 H         1 UNK         0.2896 
@<TRIPOS>BOND
     1    1    2 1    
     2    1   67 1    
     3    1   68 1    
     4    1   69 1    
     5    2    3 2    
     6    2    4 am   BACKBONE|DICT|INTERRES
     7    4    5 1    
     8    4   70 1    
     9    5    6 1    
    10    5   65 1    
    11    5   71 1    
    12    6    7 1    
    13    6   72 1    
    14    6   73 1    
    15    7    8 1    
    16    8    9 1    
    17    8   74 1    
    18    8   75 1    
    19    9   10 ar   
    20    9   14 ar   
    21   10   11 ar   
    22   10   76 1    
    23   11   12 ar   
    24   11   48 1    
    25   12   13 ar   
    26   12   77 1    
    27   13   14 ar   
    28   13   15 1    
    29   14   78 1    
    30   15   16 1    
    31   15   79 1    
    32   15   80 1    
    33   16   17 1    
    34   17   18 1    
    35   17   81 1    
    36   17   82 1    
    37   18   19 1    
    38   18   22 1    
    39   18   83 1    
    40   19   20 am   BACKBONE|DICT|INTERRES
    41   19   21 2    
    42   20   84 1    
    43   20   85 1    
    44   22   23 am   BACKBONE|DICT|INTERRES
    45   22   86 1    
    46   23   24 2    
    47   23   25 1    
    48   25   26 1    
    49   25   27 1    
    50   25   87 1    
    51   26   88 1    
    52   26   89 1    
    53   26   90 1    
    54   27   28 am   BACKBONE|DICT|INTERRES
    55   27   91 1    
    56   28   29 2    
    57   28   30 1    
    58   30   31 1    
    59   30   32 1    
    60   30   92 1    
    61   31   93 1    
    62   31   94 1    
    63   31   95 1    
    64   32   33 am   BACKBONE|DICT|INTERRES
    65   32   96 1    
    66   33   34 2    
    67   33   35 1    
    68   35   36 1    
    69   35   37 1    
    70   35   97 1    
    71   36   98 1    
    72   36   99 1    
    73   36  100 1    
    74   37   38 am   BACKBONE|DICT|INTERRES
    75   37  101 1    
    76   38   39 2    
    77   38   40 1    
    78   40   41 1    
    79   40   42 1    
    80   40  102 1    
    81   41  103 1    
    82   41  104 1    
    83   41  105 1    
    84   42   43 am   BACKBONE|DICT|INTERRES
    85   42  106 1    
    86   43   44 2    
    87   43   45 1    
    88   45   46 1    
    89   45   49 1    
    90   45  107 1    
    91   46   47 1    
    92   46  108 1    
    93   46  109 1    
    94   47   48 1    
    95   48  110 1    
    96   48  111 1    
    97   49   50 am   BACKBONE|DICT|INTERRES
    98   49  112 1    
    99   50   51 2    
   100   50   52 1    
   101   52   53 1    
   102   52   54 1    
   103   52  113 1    
   104   53  114 1    
   105   53  115 1    
   106   53  116 1    
   107   54   55 am   BACKBONE|DICT|INTERRES
   108   54  117 1    
   109   55   56 2    
   110   55   57 1    
   111   57   58 1    
   112   57   59 1    
   113   57  118 1    
   114   58  119 1    
   115   58  120 1    
   116   58  121 1    
   117   59   60 am   BACKBONE|DICT|INTERRES
   118   59  122 1    
   119   60   61 2    
   120   60   62 1    
   121   62   63 1    
   122   62   64 1    
   123   62  123 1    
   124   63  124 1    
   125   63  125 1    
   126   63  126 1    
   127   64   65 am   BACKBONE|DICT|INTERRES
   128   64  127 1    
   129   65   66 2    
@<TRIPOS>SUBSTRUCTURE
     1 UNK         1 GROUP             0       ****    0 ROOT    
