@<TRIPOS>MOLECULE
3R135
127   129    1
SMALL
USER_CHARGES


@<TRIPOS>ATOM
      1 CA        -81.5852   27.1476  -68.5870 C.3       0 UNK        -0.1998 
      2 C         -82.2181   26.7193  -69.9023 C.2       0 UNK         0.4909 
      3 O         -83.3215   26.1727  -69.9022 O.2       0 UNK        -0.5240 
      4 N         -81.5275   26.9649  -71.0234 N.am      1 UNK        -0.4739 
      5 CA        -81.9773   26.6120  -72.3768 C.3       1 UNK         0.0864 
      6 C6        -81.1885   27.3818  -73.4652 C.3       11 UNK        -0.0881 
      7 S7        -81.5413   29.1719  -73.4696 S.3       11 UNK        -0.2682 
      8 C8        -80.1839   29.8656  -72.4714 C.3       11 UNK         0.0289 
      9 C9        -78.8197   29.7212  -73.1331 C.ar      11 UNK        -0.0687 
     10 C10       -78.4712   30.5341  -74.2173 C.ar      11 UNK        -0.0823 
     11 C11       -77.1982   30.4517  -74.7927 C.ar      11 UNK        -0.0830 
     12 C12       -76.2664   29.5590  -74.2511 C.ar      11 UNK        -0.1021 
     13 C13       -76.6148   28.7106  -73.1986 C.ar      11 UNK        -0.0753 
     14 C14       -77.8913   28.8001  -72.6384 C.ar      11 UNK        -0.0933 
     15 C15       -75.6247   27.6717  -72.6947 C.3       11 UNK         0.0166 
     16 S16       -74.9521   28.0726  -71.0539 S.3       11 UNK        -0.2615 
     17 C17       -73.9454   29.5665  -71.3763 C.3       11 UNK        -0.0865 
     18 CA        -72.5018   29.3103  -71.8974 C.3       10 UNK         0.0862 
     19 C         -71.6813   28.3185  -71.0256 C.2       10 UNK         0.5551 
     20 N         -71.2962   27.1467  -71.5150 N.am      10 UNK        -0.7319 
     21 O         -71.3604   28.6362  -69.8826 O.2       10 UNK        -0.5018 
     22 N         -72.4652   29.0393  -73.3440 N.am      10 UNK        -0.4509 
     23 C         -72.4247   29.9968  -74.2834 C.2       10 UNK         0.4899 
     24 O         -72.4728   31.2002  -74.0226 O.2       10 UNK        -0.4839 
     25 CA        -72.3360   29.5566  -75.7614 C.3       9 UNK         0.0222 
     26 CB        -71.6905   30.6244  -76.6695 C.3       9 UNK        -0.1966 
     27 N         -71.7048   28.2499  -75.9605 N.am      9 UNK        -0.4218 
     28 C         -70.4663   27.8781  -75.6027 C.2       9 UNK         0.5020 
     29 O         -69.6211   28.6549  -75.1546 O.2       9 UNK        -0.5274 
     30 CA        -70.1208   26.3792  -75.7457 C.3       8 UNK         0.0270 
     31 CB        -69.1151   25.9142  -74.6713 C.3       8 UNK        -0.1976 
     32 N         -71.2830   25.4762  -75.7635 N.am      8 UNK        -0.4313 
     33 C         -72.2576   25.3646  -74.8494 C.2       8 UNK         0.5041 
     34 O         -72.3644   26.1066  -73.8701 O.2       8 UNK        -0.5577 
     35 CA        -73.3163   24.2781  -75.1183 C.3       7 UNK         0.0284 
     36 CB        -74.2671   24.0731  -73.9247 C.3       7 UNK        -0.1958 
     37 N         -74.1077   24.5825  -76.3131 N.am      7 UNK        -0.4454 
     38 C         -73.6897   24.4596  -77.5808 C.2       7 UNK         0.5089 
     39 O         -72.5784   24.0256  -77.8885 O.2       7 UNK        -0.5125 
     40 CA        -74.6554   24.9109  -78.6921 C.3       6 UNK         0.0408 
     41 CB        -75.3176   23.6928  -79.3549 C.3       6 UNK        -0.1791 
     42 N         -75.6989   25.8351  -78.2355 N.am      6 UNK        -0.4762 
     43 C         -75.5021   27.1070  -77.8541 C.2       6 UNK         0.5007 
     44 O         -74.3831   27.6182  -77.8109 O.2       6 UNK        -0.5032 
     45 CA        -76.7400   27.9133  -77.3823 C.3       5 UNK         0.0783 
     46 C46       -76.8555   29.3358  -78.0018 C.3       11 UNK        -0.0857 
     47 S47       -75.7609   30.5749  -77.2262 S.3       11 UNK        -0.2512 
     48 C48       -76.8406   31.3556  -75.9726 C.3       11 UNK         0.0225 
     49 N         -77.9993   27.1627  -77.4628 N.am      5 UNK        -0.4615 
     50 C         -78.6811   26.8067  -78.5577 C.2       4 UNK         0.5053 
     51 O         -78.3212   27.0778  -79.7034 O.2       4 UNK        -0.5105 
     52 CA        -79.9514   25.9623  -78.3182 C.3       4 UNK         0.0263 
     53 CB        -80.6603   25.5767  -79.6303 C.3       4 UNK        -0.1981 
     54 N         -79.6873   24.7400  -77.5453 N.am      4 UNK        -0.4224 
     55 C         -79.4464   24.6928  -76.2288 C.2       3 UNK         0.4895 
     56 O         -79.3615   25.6953  -75.5138 O.2       3 UNK        -0.5091 
     57 CA        -79.2199   23.3126  -75.6061 C.3       3 UNK         0.0250 
     58 CB        -77.7420   22.9001  -75.7112 C.3       3 UNK        -0.1996 
     59 N         -79.6001   23.4175  -74.2033 N.am      3 UNK        -0.4254 
     60 C         -80.2614   22.5029  -73.4886 C.2       2 UNK         0.5004 
     61 O         -80.5044   21.3626  -73.8854 O.2       2 UNK        -0.5226 
     62 CA        -80.7556   22.9441  -72.0971 C.3       2 UNK         0.0269 
     63 CB        -79.7699   22.4904  -71.0080 C.3       2 UNK        -0.1926 
     64 N         -80.9747   24.3924  -71.9740 N.am      2 UNK        -0.4687 
     65 C         -81.9117   25.0910  -72.6368 C.2       1 UNK         0.5165 
     66 O         -82.7071   24.5804  -73.4266 O.2       1 UNK        -0.5079 
     67 H67       -80.6169   27.6252  -68.7354 H         1 UNK         0.0900 
     68 H68       -81.4411   26.2821  -67.9408 H         1 UNK         0.0900 
     69 H69       -82.2351   27.8537  -68.0709 H         1 UNK         0.0900 
     70 H70       -80.6317   27.4246  -70.9626 H         1 UNK         0.2959 
     71 H71       -83.0301   26.8917  -72.4629 H         1 UNK         0.1079 
     72 H72       -80.1161   27.2067  -73.3722 H         1 UNK         0.0837 
     73 H73       -81.4616   27.0170  -74.4576 H         1 UNK         0.0837 
     74 H74       -80.3849   30.9253  -72.3076 H         1 UNK         0.0685 
     75 H75       -80.1860   29.4080  -71.4819 H         1 UNK         0.0685 
     76 H76       -79.1946   31.2385  -74.6053 H         1 UNK         0.1434 
     77 H77       -75.2750   29.4973  -74.6731 H         1 UNK         0.1329 
     78 H78       -78.1535   28.1566  -71.8103 H         1 UNK         0.1335 
     79 H79       -74.8053   27.5347  -73.4012 H         1 UNK         0.0680 
     80 H80       -76.1316   26.7081  -72.6310 H         1 UNK         0.0680 
     81 H81       -73.8854   30.1123  -70.4333 H         1 UNK         0.1032 
     82 H82       -74.4833   30.2334  -72.0509 H         1 UNK         0.1032 
     83 H83       -71.9632   30.2492  -71.7526 H         1 UNK         0.0461 
     84 H84       -70.7543   26.5335  -70.9287 H         1 UNK         0.3453 
     85 H85       -71.6301   26.8096  -72.4159 H         1 UNK         0.3453 
     86 H86       -72.4120   28.0618  -73.6149 H         1 UNK         0.2984 
     87 H87       -73.3653   29.4305  -76.0908 H         1 UNK         0.0554 
     88 H88       -71.6654   30.2967  -77.7087 H         1 UNK         0.0847 
     89 H89       -70.6698   30.8541  -76.3627 H         1 UNK         0.0847 
     90 H90       -72.2573   31.5558  -76.6417 H         1 UNK         0.0847 
     91 H91       -72.3159   27.5359  -76.3345 H         1 UNK         0.3141 
     92 H92       -69.6398   26.2748  -76.7192 H         1 UNK         0.0743 
     93 H93       -69.5136   26.0441  -73.6646 H         1 UNK         0.0784 
     94 H94       -68.8577   24.8626  -74.7967 H         1 UNK         0.0784 
     95 H95       -68.1848   26.4808  -74.7286 H         1 UNK         0.0784 
     96 H96       -71.3611   24.8713  -76.5778 H         1 UNK         0.3213 
     97 H97       -72.7817   23.3392  -75.2796 H         1 UNK         0.0855 
     98 H98       -74.8869   24.9508  -73.7452 H         1 UNK         0.0814 
     99 H99       -73.7077   23.8776  -73.0086 H         1 UNK         0.0814 
    100 H100      -74.9269   23.2206  -74.0851 H         1 UNK         0.0814 
    101 H101      -75.0228   24.9779  -76.1613 H         1 UNK         0.3105 
    102 H102      -74.0600   25.4266  -79.4484 H         1 UNK         0.0547 
    103 H103      -74.5658   23.0076  -79.7493 H         1 UNK         0.0837 
    104 H104      -75.9308   23.1301  -78.6510 H         1 UNK         0.0837 
    105 H105      -75.9507   23.9900  -80.1912 H         1 UNK         0.0837 
    106 H106      -76.6492   25.4959  -78.2567 H         1 UNK         0.3020 
    107 H107      -76.5864   28.0266  -76.3126 H         1 UNK         0.1245 
    108 H108      -77.8791   29.7029  -77.9120 H         1 UNK         0.0781 
    109 H109      -76.6497   29.3063  -79.0733 H         1 UNK         0.0781 
    110 H110      -77.7432   31.7186  -76.4668 H         1 UNK         0.0836 
    111 H111      -76.3302   32.2368  -75.5821 H         1 UNK         0.0836 
    112 H112      -78.3847   26.8501  -76.5729 H         1 UNK         0.3022 
    113 H113      -80.6398   26.5873  -77.7447 H         1 UNK         0.0747 
    114 H114      -81.5900   25.0412  -79.4370 H         1 UNK         0.0793 
    115 H115      -80.9164   26.4632  -80.2123 H         1 UNK         0.0793 
    116 H116      -80.0320   24.9442  -80.2589 H         1 UNK         0.0793 
    117 H117      -79.7057   23.8736  -78.0646 H         1 UNK         0.3047 
    118 H118      -79.8528   22.5824  -76.1155 H         1 UNK         0.0822 
    119 H119      -77.5626   21.9441  -75.2188 H         1 UNK         0.0807 
    120 H120      -77.0852   23.6399  -75.2527 H         1 UNK         0.0807 
    121 H121      -77.4387   22.7892  -76.7523 H         1 UNK         0.0807 
    122 H122      -79.4966   24.3488  -73.8206 H         1 UNK         0.2946 
    123 H123      -81.7126   22.4462  -71.9250 H         1 UNK         0.1144 
    124 H124      -79.6066   21.4127  -71.0542 H         1 UNK         0.0793 
    125 H125      -80.1482   22.7158  -70.0107 H         1 UNK         0.0793 
    126 H126      -78.7974   22.9721  -71.1170 H         1 UNK         0.0793 
    127 H127      -80.3785   24.8905  -71.3292 H         1 UNK         0.2896 
@<TRIPOS>BOND
     1    1    2 1    
     2    1   67 1    
     3    1   68 1    
     4    1   69 1    
     5    2    3 2    
     6    2    4 am   BACKBONE|DICT|INTERRES
     7    4    5 1    
     8    4   70 1    
     9    5    6 1    
    10    5   65 1    
    11    5   71 1    
    12    6    7 1    
    13    6   72 1    
    14    6   73 1    
    15    7    8 1    
    16    8    9 1    
    17    8   74 1    
    18    8   75 1    
    19    9   10 ar   
    20    9   14 ar   
    21   10   11 ar   
    22   10   76 1    
    23   11   12 ar   
    24   11   48 1    
    25   12   13 ar   
    26   12   77 1    
    27   13   14 ar   
    28   13   15 1    
    29   14   78 1    
    30   15   16 1    
    31   15   79 1    
    32   15   80 1    
    33   16   17 1    
    34   17   18 1    
    35   17   81 1    
    36   17   82 1    
    37   18   19 1    
    38   18   22 1    
    39   18   83 1    
    40   19   20 am   BACKBONE|DICT|INTERRES
    41   19   21 2    
    42   20   84 1    
    43   20   85 1    
    44   22   23 am   BACKBONE|DICT|INTERRES
    45   22   86 1    
    46   23   24 2    
    47   23   25 1    
    48   25   26 1    
    49   25   27 1    
    50   25   87 1    
    51   26   88 1    
    52   26   89 1    
    53   26   90 1    
    54   27   28 am   BACKBONE|DICT|INTERRES
    55   27   91 1    
    56   28   29 2    
    57   28   30 1    
    58   30   31 1    
    59   30   32 1    
    60   30   92 1    
    61   31   93 1    
    62   31   94 1    
    63   31   95 1    
    64   32   33 am   BACKBONE|DICT|INTERRES
    65   32   96 1    
    66   33   34 2    
    67   33   35 1    
    68   35   36 1    
    69   35   37 1    
    70   35   97 1    
    71   36   98 1    
    72   36   99 1    
    73   36  100 1    
    74   37   38 am   BACKBONE|DICT|INTERRES
    75   37  101 1    
    76   38   39 2    
    77   38   40 1    
    78   40   41 1    
    79   40   42 1    
    80   40  102 1    
    81   41  103 1    
    82   41  104 1    
    83   41  105 1    
    84   42   43 am   BACKBONE|DICT|INTERRES
    85   42  106 1    
    86   43   44 2    
    87   43   45 1    
    88   45   46 1    
    89   45   49 1    
    90   45  107 1    
    91   46   47 1    
    92   46  108 1    
    93   46  109 1    
    94   47   48 1    
    95   48  110 1    
    96   48  111 1    
    97   49   50 am   BACKBONE|DICT|INTERRES
    98   49  112 1    
    99   50   51 2    
   100   50   52 1    
   101   52   53 1    
   102   52   54 1    
   103   52  113 1    
   104   53  114 1    
   105   53  115 1    
   106   53  116 1    
   107   54   55 am   BACKBONE|DICT|INTERRES
   108   54  117 1    
   109   55   56 2    
   110   55   57 1    
   111   57   58 1    
   112   57   59 1    
   113   57  118 1    
   114   58  119 1    
   115   58  120 1    
   116   58  121 1    
   117   59   60 am   BACKBONE|DICT|INTERRES
   118   59  122 1    
   119   60   61 2    
   120   60   62 1    
   121   62   63 1    
   122   62   64 1    
   123   62  123 1    
   124   63  124 1    
   125   63  125 1    
   126   63  126 1    
   127   64   65 am   BACKBONE|DICT|INTERRES
   128   64  127 1    
   129   65   66 2    
@<TRIPOS>SUBSTRUCTURE
     1 UNK         1 GROUP             0       ****    0 ROOT    
