@<TRIPOS>MOLECULE
3R135
127   129    1
SMALL
USER_CHARGES


@<TRIPOS>ATOM
      1 CA        -79.0812   26.5522  -77.8692 C.3       0 UNK        -0.1998 
      2 C         -79.5056   26.5445  -76.4093 C.2       0 UNK         0.4909 
      3 O         -79.2693   25.5600  -75.7073 O.2       0 UNK        -0.5240 
      4 N         -80.1124   27.6413  -75.9386 N.am      1 UNK        -0.4739 
      5 CA        -80.6514   27.7728  -74.5834 C.3       1 UNK         0.0864 
      6 C6        -81.0014   29.2497  -74.2601 C.3       11 UNK        -0.0881 
      7 S7        -81.5922   29.5088  -72.5484 S.3       11 UNK        -0.2682 
      8 C8        -80.1702   30.3315  -71.7545 C.3       11 UNK         0.0289 
      9 C9        -78.9013   29.4859  -71.7577 C.ar      11 UNK        -0.0687 
     10 C10       -78.9336   28.1428  -71.3696 C.ar      11 UNK        -0.0823 
     11 C11       -77.7761   27.3631  -71.4128 C.ar      11 UNK        -0.0830 
     12 C12       -76.5664   27.9481  -71.7989 C.ar      11 UNK        -0.1021 
     13 C13       -76.5068   29.3030  -72.1473 C.ar      11 UNK        -0.0753 
     14 C14       -77.6837   30.0590  -72.1376 C.ar      11 UNK        -0.0933 
     15 C15       -75.1915   29.9628  -72.5573 C.3       11 UNK         0.0166 
     16 S16       -73.8113   29.5674  -71.4324 S.3       11 UNK        -0.2615 
     17 C17       -72.6611   30.9518  -71.7534 C.3       11 UNK        -0.0865 
     18 CA        -71.4847   30.6162  -72.7161 C.3       10 UNK         0.0862 
     19 C         -70.4306   29.6664  -72.0790 C.2       10 UNK         0.5551 
     20 N         -70.0246   28.5689  -72.7024 N.am      10 UNK        -0.7319 
     21 O         -69.9355   29.9531  -70.9913 O.2       10 UNK        -0.5018 
     22 N         -71.9262   30.2698  -74.0797 N.am      10 UNK        -0.4509 
     23 C         -72.4342   31.1645  -74.9420 C.2       10 UNK         0.4899 
     24 O         -72.5987   32.3536  -74.6627 O.2       10 UNK        -0.4839 
     25 CA        -72.8392   30.6612  -76.3447 C.3       9 UNK         0.0222 
     26 CB        -73.0322   31.8033  -77.3651 C.3       9 UNK        -0.1966 
     27 N         -71.9408   29.6357  -76.8802 N.am      9 UNK        -0.4218 
     28 C         -70.6153   29.7305  -77.0811 C.2       9 UNK         0.5020 
     29 O         -69.9777   30.7765  -76.9478 O.2       9 UNK        -0.5274 
     30 CA        -69.8659   28.4384  -77.4867 C.3       8 UNK         0.0270 
     31 CB        -68.4651   28.3605  -76.8417 C.3       8 UNK        -0.1976 
     32 N         -70.6112   27.1942  -77.2337 N.am      8 UNK        -0.4313 
     33 C         -71.1024   26.7803  -76.0573 C.2       8 UNK         0.5041 
     34 O         -70.9705   27.3973  -74.9974 O.2       8 UNK        -0.5577 
     35 CA        -71.9733   25.5162  -76.0817 C.3       7 UNK         0.0284 
     36 CB        -71.2909   24.3677  -75.3226 C.3       7 UNK        -0.1958 
     37 N         -73.2788   25.7883  -75.4789 N.am      7 UNK        -0.4454 
     38 C         -74.1572   26.7062  -75.9016 C.2       7 UNK         0.5089 
     39 O         -74.0017   27.3738  -76.9269 O.2       7 UNK        -0.5125 
     40 CA        -75.4004   26.9205  -75.0175 C.3       6 UNK         0.0408 
     41 CB        -76.3513   27.9922  -75.5808 C.3       6 UNK        -0.1791 
     42 N         -76.1552   25.6869  -74.7779 N.am      6 UNK        -0.4762 
     43 C         -75.8037   24.6973  -73.9417 C.2       6 UNK         0.5007 
     44 O         -74.7661   24.7090  -73.2774 O.2       6 UNK        -0.5032 
     45 CA        -76.7512   23.4851  -73.8368 C.3       5 UNK         0.0783 
     46 C46       -77.5739   23.4885  -72.5228 C.3       11 UNK        -0.0857 
     47 S47       -78.6906   24.9227  -72.3276 S.3       11 UNK        -0.2512 
     48 C48       -77.8368   25.8909  -71.0397 C.3       11 UNK         0.0225 
     49 N         -77.6085   23.3640  -75.0196 N.am      5 UNK        -0.4615 
     50 C         -77.2855   22.6826  -76.1261 C.2       4 UNK         0.5053 
     51 O         -76.2306   22.0604  -76.2574 O.2       4 UNK        -0.5105 
     52 CA        -78.3333   22.6698  -77.2514 C.3       4 UNK         0.0263 
     53 CB        -78.0772   21.5740  -78.3068 C.3       4 UNK        -0.1981 
     54 N         -79.6690   22.5202  -76.6745 N.am      4 UNK        -0.4224 
     55 C         -80.8130   22.9203  -77.2412 C.2       3 UNK         0.4895 
     56 O         -80.8942   23.4445  -78.3520 O.2       3 UNK        -0.5091 
     57 CA        -82.0770   22.7226  -76.4023 C.3       3 UNK         0.0250 
     58 CB        -82.2731   21.2416  -76.0084 C.3       3 UNK        -0.1996 
     59 N         -82.0108   23.5938  -75.2289 N.am      3 UNK        -0.4254 
     60 C         -83.0304   23.8565  -74.4007 C.2       2 UNK         0.5004 
     61 O         -84.1543   23.3661  -74.5165 O.2       2 UNK        -0.5226 
     62 CA        -82.7626   24.8350  -73.2432 C.3       2 UNK         0.0269 
     63 CB        -82.3774   24.0653  -71.9694 C.3       2 UNK        -0.1926 
     64 N         -81.7250   25.8268  -73.5370 N.am      2 UNK        -0.4687 
     65 C         -81.8599   26.8271  -74.4179 C.2       1 UNK         0.5165 
     66 O         -82.8751   27.0160  -75.0925 O.2       1 UNK        -0.5079 
     67 H67       -78.0612   26.1831  -77.9696 H         1 UNK         0.0900 
     68 H68       -79.1220   27.5530  -78.2983 H         1 UNK         0.0900 
     69 H69       -79.7352   25.9043  -78.4514 H         1 UNK         0.0900 
     70 H70       -80.3033   28.4106  -76.5643 H         1 UNK         0.2959 
     71 H71       -79.8651   27.4570  -73.8950 H         1 UNK         0.1079 
     72 H72       -80.1284   29.8815  -74.4322 H         1 UNK         0.0837 
     73 H73       -81.7717   29.6160  -74.9415 H         1 UNK         0.0837 
     74 H74       -80.4318   30.5631  -70.7214 H         1 UNK         0.0685 
     75 H75       -80.0012   31.2878  -72.2520 H         1 UNK         0.0685 
     76 H76       -79.8680   27.6936  -71.0618 H         1 UNK         0.1434 
     77 H77       -75.6667   27.3486  -71.8210 H         1 UNK         0.1329 
     78 H78       -77.6518   31.1016  -72.4233 H         1 UNK         0.1335 
     79 H79       -75.3204   31.0454  -72.5926 H         1 UNK         0.0680 
     80 H80       -74.9249   29.6529  -73.5667 H         1 UNK         0.0680 
     81 H81       -73.2171   31.8103  -72.1303 H         1 UNK         0.1032 
     82 H82       -72.2698   31.2857  -70.7907 H         1 UNK         0.1032 
     83 H83       -70.9173   31.5425  -72.8276 H         1 UNK         0.0461 
     84 H84       -70.4135   28.2515  -73.5896 H         1 UNK         0.3453 
     85 H85       -69.3293   27.9981  -72.2506 H         1 UNK         0.3453 
     86 H86       -71.7784   29.3110  -74.3726 H         1 UNK         0.2984 
     87 H87       -73.8056   30.1733  -76.2167 H         1 UNK         0.0554 
     88 H88       -73.3421   31.4191  -78.3369 H         1 UNK         0.0847 
     89 H89       -72.1162   32.3775  -77.5077 H         1 UNK         0.0847 
     90 H90       -73.8037   32.4994  -77.0338 H         1 UNK         0.0847 
     91 H91       -72.3743   28.7291  -77.0218 H         1 UNK         0.3141 
     92 H92       -69.7308   28.4985  -78.5676 H         1 UNK         0.0743 
     93 H93       -67.9383   27.4555  -77.1440 H         1 UNK         0.0784 
     94 H94       -67.8459   29.2073  -77.1403 H         1 UNK         0.0784 
     95 H95       -68.5214   28.3681  -75.7525 H         1 UNK         0.0784 
     96 H96       -70.8105   26.6371  -78.0541 H         1 UNK         0.3213 
     97 H97       -72.1385   25.2048  -77.1151 H         1 UNK         0.0855 
     98 H98       -71.1209   24.6225  -74.2755 H         1 UNK         0.0814 
     99 H99       -70.3211   24.1313  -75.7623 H         1 UNK         0.0814 
    100 H100      -71.8917   23.4585  -75.3533 H         1 UNK         0.0814 
    101 H101      -73.4982   25.3092  -74.6104 H         1 UNK         0.3105 
    102 H102      -75.0274   27.2818  -74.0593 H         1 UNK         0.0547 
    103 H103      -76.7214   27.7217  -76.5688 H         1 UNK         0.0837 
    104 H104      -77.2082   28.1486  -74.9248 H         1 UNK         0.0837 
    105 H105      -75.8463   28.9524  -75.6828 H         1 UNK         0.0837 
    106 H106      -77.0362   25.5934  -75.2667 H         1 UNK         0.3020 
    107 H107      -76.1021   22.6070  -73.7932 H         1 UNK         0.1245 
    108 H108      -76.9081   23.4095  -71.6620 H         1 UNK         0.0781 
    109 H109      -78.1897   22.5887  -72.4839 H         1 UNK         0.0781 
    110 H110      -76.8279   25.5111  -70.8748 H         1 UNK         0.0836 
    111 H111      -78.3654   25.7711  -70.0930 H         1 UNK         0.0836 
    112 H112      -78.4371   23.9532  -75.0362 H         1 UNK         0.3022 
    113 H113      -78.2696   23.6423  -77.7426 H         1 UNK         0.0747 
    114 H114      -78.8095   21.6172  -79.1130 H         1 UNK         0.0793 
    115 H115      -77.0930   21.6893  -78.7625 H         1 UNK         0.0793 
    116 H116      -78.1214   20.5770  -77.8671 H         1 UNK         0.0793 
    117 H117      -79.7013   22.0994  -75.7559 H         1 UNK         0.3047 
    118 H118      -82.9271   23.0344  -77.0130 H         1 UNK         0.0822 
    119 H119      -82.1832   20.5900  -76.8788 H         1 UNK         0.0807 
    120 H120      -83.2629   21.0691  -75.5861 H         1 UNK         0.0807 
    121 H121      -81.5397   20.9107  -75.2727 H         1 UNK         0.0807 
    122 H122      -81.1440   24.1014  -75.0986 H         1 UNK         0.2946 
    123 H123      -83.6949   25.3713  -73.0508 H         1 UNK         0.1144 
    124 H124      -83.1573   23.3544  -71.6930 H         1 UNK         0.0793 
    125 H125      -82.2397   24.7390  -71.1235 H         1 UNK         0.0793 
    126 H126      -81.4544   23.4996  -72.1024 H         1 UNK         0.0793 
    127 H127      -80.8420   25.7141  -73.0549 H         1 UNK         0.2896 
@<TRIPOS>BOND
     1    1    2 1    
     2    1   67 1    
     3    1   68 1    
     4    1   69 1    
     5    2    3 2    
     6    2    4 am   BACKBONE|DICT|INTERRES
     7    4    5 1    
     8    4   70 1    
     9    5    6 1    
    10    5   65 1    
    11    5   71 1    
    12    6    7 1    
    13    6   72 1    
    14    6   73 1    
    15    7    8 1    
    16    8    9 1    
    17    8   74 1    
    18    8   75 1    
    19    9   10 ar   
    20    9   14 ar   
    21   10   11 ar   
    22   10   76 1    
    23   11   12 ar   
    24   11   48 1    
    25   12   13 ar   
    26   12   77 1    
    27   13   14 ar   
    28   13   15 1    
    29   14   78 1    
    30   15   16 1    
    31   15   79 1    
    32   15   80 1    
    33   16   17 1    
    34   17   18 1    
    35   17   81 1    
    36   17   82 1    
    37   18   19 1    
    38   18   22 1    
    39   18   83 1    
    40   19   20 am   BACKBONE|DICT|INTERRES
    41   19   21 2    
    42   20   84 1    
    43   20   85 1    
    44   22   23 am   BACKBONE|DICT|INTERRES
    45   22   86 1    
    46   23   24 2    
    47   23   25 1    
    48   25   26 1    
    49   25   27 1    
    50   25   87 1    
    51   26   88 1    
    52   26   89 1    
    53   26   90 1    
    54   27   28 am   BACKBONE|DICT|INTERRES
    55   27   91 1    
    56   28   29 2    
    57   28   30 1    
    58   30   31 1    
    59   30   32 1    
    60   30   92 1    
    61   31   93 1    
    62   31   94 1    
    63   31   95 1    
    64   32   33 am   BACKBONE|DICT|INTERRES
    65   32   96 1    
    66   33   34 2    
    67   33   35 1    
    68   35   36 1    
    69   35   37 1    
    70   35   97 1    
    71   36   98 1    
    72   36   99 1    
    73   36  100 1    
    74   37   38 am   BACKBONE|DICT|INTERRES
    75   37  101 1    
    76   38   39 2    
    77   38   40 1    
    78   40   41 1    
    79   40   42 1    
    80   40  102 1    
    81   41  103 1    
    82   41  104 1    
    83   41  105 1    
    84   42   43 am   BACKBONE|DICT|INTERRES
    85   42  106 1    
    86   43   44 2    
    87   43   45 1    
    88   45   46 1    
    89   45   49 1    
    90   45  107 1    
    91   46   47 1    
    92   46  108 1    
    93   46  109 1    
    94   47   48 1    
    95   48  110 1    
    96   48  111 1    
    97   49   50 am   BACKBONE|DICT|INTERRES
    98   49  112 1    
    99   50   51 2    
   100   50   52 1    
   101   52   53 1    
   102   52   54 1    
   103   52  113 1    
   104   53  114 1    
   105   53  115 1    
   106   53  116 1    
   107   54   55 am   BACKBONE|DICT|INTERRES
   108   54  117 1    
   109   55   56 2    
   110   55   57 1    
   111   57   58 1    
   112   57   59 1    
   113   57  118 1    
   114   58  119 1    
   115   58  120 1    
   116   58  121 1    
   117   59   60 am   BACKBONE|DICT|INTERRES
   118   59  122 1    
   119   60   61 2    
   120   60   62 1    
   121   62   63 1    
   122   62   64 1    
   123   62  123 1    
   124   63  124 1    
   125   63  125 1    
   126   63  126 1    
   127   64   65 am   BACKBONE|DICT|INTERRES
   128   64  127 1    
   129   65   66 2    
@<TRIPOS>SUBSTRUCTURE
     1 UNK         1 GROUP             0       ****    0 ROOT    
