@<TRIPOS>MOLECULE
3R135
127   129    1
SMALL
USER_CHARGES


@<TRIPOS>ATOM
      1 CA        -78.0288   29.7843  -77.1280 C.3       0 UNK        -0.1998 
      2 C         -78.1601   28.6279  -76.1523 C.2       0 UNK         0.4909 
      3 O         -77.2198   27.8487  -75.9885 O.2       0 UNK        -0.5240 
      4 N         -79.3292   28.5056  -75.5095 N.am      1 UNK        -0.4739 
      5 CA        -79.6254   27.4457  -74.5397 C.3       1 UNK         0.0864 
      6 C6        -80.9165   27.7098  -73.7185 C.3       11 UNK        -0.0881 
      7 S7        -80.9774   29.3695  -72.9534 S.3       11 UNK        -0.2682 
      8 C8        -80.2671   29.0674  -71.3017 C.3       11 UNK         0.0289 
      9 C9        -78.8219   28.6076  -71.4037 C.ar      11 UNK        -0.0687 
     10 C10       -78.4901   27.2709  -71.1665 C.ar      11 UNK        -0.0823 
     11 C11       -77.1842   26.8139  -71.3637 C.ar      11 UNK        -0.0830 
     12 C12       -76.2019   27.7274  -71.7692 C.ar      11 UNK        -0.1021 
     13 C13       -76.5140   29.0717  -71.9935 C.ar      11 UNK        -0.0753 
     14 C14       -77.8276   29.5062  -71.8001 C.ar      11 UNK        -0.0933 
     15 C15       -75.4569   30.0447  -72.5052 C.3       11 UNK         0.0166 
     16 S16       -74.0832   30.2829  -71.3327 S.3       11 UNK        -0.2615 
     17 C17       -72.9157   28.9589  -71.8120 C.3       11 UNK        -0.0865 
     18 CA        -71.5434   29.5247  -72.2550 C.3       10 UNK         0.0862 
     19 C         -70.4730   28.4022  -72.3313 C.2       10 UNK         0.5551 
     20 N         -69.8896   28.0317  -71.1995 N.am      10 UNK        -0.7319 
     21 O         -70.1876   27.8439  -73.3894 O.2       10 UNK        -0.5018 
     22 N         -71.6484   30.2581  -73.5237 N.am      10 UNK        -0.4509 
     23 C         -70.8110   31.2331  -73.9025 C.2       10 UNK         0.4899 
     24 O         -69.9204   31.6807  -73.1783 O.2       10 UNK        -0.4839 
     25 CA        -70.9609   31.8152  -75.3237 C.3       9 UNK         0.0222 
     26 CB        -69.7467   31.4352  -76.1885 C.3       9 UNK        -0.1966 
     27 N         -72.1798   31.3960  -76.0175 N.am      9 UNK        -0.4218 
     28 C         -73.4217   31.8060  -75.7277 C.2       9 UNK         0.5020 
     29 O         -73.6789   32.6670  -74.8859 O.2       9 UNK        -0.5274 
     30 CA        -74.5791   31.1429  -76.5017 C.3       8 UNK         0.0270 
     31 CB        -75.0934   32.0977  -77.5930 C.3       8 UNK        -0.1976 
     32 N         -74.2686   29.8410  -77.1132 N.am      8 UNK        -0.4313 
     33 C         -73.8431   28.7499  -76.4612 C.2       8 UNK         0.5041 
     34 O         -73.6006   28.7228  -75.2545 O.2       8 UNK        -0.5577 
     35 CA        -73.6610   27.4821  -77.2989 C.3       7 UNK         0.0284 
     36 CB        -72.5274   26.5882  -76.7545 C.3       7 UNK        -0.1958 
     37 N         -74.9231   26.7509  -77.2961 N.am      7 UNK        -0.4454 
     38 C         -75.2845   25.8262  -78.1924 C.2       7 UNK         0.5089 
     39 O         -74.6166   25.5443  -79.1895 O.2       7 UNK        -0.5125 
     40 CA        -76.5984   25.0708  -77.8945 C.3       6 UNK         0.0408 
     41 CB        -76.8520   23.9057  -78.8775 C.3       6 UNK        -0.1791 
     42 N         -76.6610   24.6055  -76.4992 N.am      6 UNK        -0.4762 
     43 C         -75.7835   23.7907  -75.8899 C.2       6 UNK         0.5007 
     44 O         -74.8700   23.1995  -76.4665 O.2       6 UNK        -0.5032 
     45 CA        -75.9339   23.6293  -74.3710 C.3       5 UNK         0.0783 
     46 C46       -75.5984   24.9541  -73.6447 C.3       11 UNK        -0.0857 
     47 S47       -75.3353   24.6982  -71.8574 S.3       11 UNK        -0.2512 
     48 C48       -76.8957   25.3270  -71.1444 C.3       11 UNK         0.0225 
     49 N         -77.2719   23.1345  -74.0316 N.am      5 UNK        -0.4615 
     50 C         -77.5388   21.8577  -73.7324 C.2       4 UNK         0.5053 
     51 O         -76.7042   20.9550  -73.8048 O.2       4 UNK        -0.5105 
     52 CA        -78.9492   21.5081  -73.2356 C.3       4 UNK         0.0263 
     53 CB        -79.0481   21.6852  -71.7086 C.3       4 UNK        -0.1981 
     54 N         -80.0235   22.2539  -73.8992 N.am      4 UNK        -0.4224 
     55 C         -81.2618   21.7621  -74.0732 C.2       3 UNK         0.4895 
     56 O         -81.6042   20.6371  -73.7051 O.2       3 UNK        -0.5091 
     57 CA        -82.3192   22.6553  -74.7530 C.3       3 UNK         0.0250 
     58 CB        -83.2648   23.2573  -73.7002 C.3       3 UNK        -0.1996 
     59 N         -81.7597   23.7393  -75.5587 N.am      3 UNK        -0.4254 
     60 C         -81.0471   23.5812  -76.6810 C.2       2 UNK         0.5004 
     61 O         -80.8595   22.4927  -77.2242 O.2       2 UNK        -0.5226 
     62 CA        -80.4088   24.8428  -77.2897 C.3       2 UNK         0.0269 
     63 CB        -81.1418   25.2556  -78.5761 C.3       2 UNK        -0.1926 
     64 N         -80.3151   26.0082  -76.3990 N.am      2 UNK        -0.4687 
     65 C         -79.6850   26.0641  -75.2151 C.2       1 UNK         0.5165 
     66 O         -79.1485   25.0932  -74.6776 O.2       1 UNK        -0.5079 
     67 H67       -78.9837   30.0163  -77.5991 H         1 UNK         0.0900 
     68 H68       -77.6778   30.6736  -76.6069 H         1 UNK         0.0900 
     69 H69       -77.3163   29.5382  -77.9146 H         1 UNK         0.0900 
     70 H70       -80.0572   29.1917  -75.6509 H         1 UNK         0.2959 
     71 H71       -78.7789   27.4079  -73.8541 H         1 UNK         0.1079 
     72 H72       -81.0343   26.9553  -72.9381 H         1 UNK         0.0837 
     73 H73       -81.7982   27.6200  -74.3561 H         1 UNK         0.0837 
     74 H74       -80.8775   28.3351  -70.7709 H         1 UNK         0.0685 
     75 H75       -80.3143   29.9887  -70.7195 H         1 UNK         0.0685 
     76 H76       -79.2608   26.5738  -70.8663 H         1 UNK         0.1434 
     77 H77       -75.1909   27.3919  -71.9299 H         1 UNK         0.1329 
     78 H78       -78.0911   30.5364  -71.9975 H         1 UNK         0.1335 
     79 H79       -75.9036   31.0214  -72.6967 H         1 UNK         0.0680 
     80 H80       -75.0813   29.7003  -73.4666 H         1 UNK         0.0680 
     81 H81       -72.8054   28.2997  -70.9488 H         1 UNK         0.1032 
     82 H82       -73.3319   28.3442  -72.6110 H         1 UNK         0.1032 
     83 H83       -71.2145   30.2262  -71.4850 H         1 UNK         0.0461 
     84 H84       -70.1157   28.4786  -70.3244 H         1 UNK         0.3453 
     85 H85       -69.1997   27.2969  -71.2223 H         1 UNK         0.3453 
     86 H86       -72.3266   29.8942  -74.1860 H         1 UNK         0.2984 
     87 H87       -70.9834   32.9027  -75.2271 H         1 UNK         0.0554 
     88 H88       -68.8173   31.7762  -75.7299 H         1 UNK         0.0847 
     89 H89       -69.8019   31.8919  -77.1769 H         1 UNK         0.0847 
     90 H90       -69.6664   30.3550  -76.3188 H         1 UNK         0.0847 
     91 H91       -72.0759   30.6821  -76.7232 H         1 UNK         0.3141 
     92 H92       -75.3821   30.9743  -75.7815 H         1 UNK         0.0743 
     93 H93       -74.3253   32.3060  -78.3390 H         1 UNK         0.0784 
     94 H94       -75.9607   31.6916  -78.1124 H         1 UNK         0.0784 
     95 H95       -75.3961   33.0540  -77.1636 H         1 UNK         0.0784 
     96 H96       -74.4387   29.7654  -78.1061 H         1 UNK         0.3213 
     97 H97       -73.4119   27.7752  -78.3211 H         1 UNK         0.0855 
     98 H98       -72.7555   26.2110  -75.7568 H         1 UNK         0.0814 
     99 H99       -71.5906   27.1427  -76.6863 H         1 UNK         0.0814 
    100 H100      -72.3503   25.7294  -77.4020 H         1 UNK         0.0814 
    101 H101      -75.5876   27.0095  -76.5676 H         1 UNK         0.3105 
    102 H102      -77.4033   25.7965  -78.0181 H         1 UNK         0.0547 
    103 H103      -77.7548   23.3496  -78.6289 H         1 UNK         0.0837 
    104 H104      -76.0235   23.1968  -78.8876 H         1 UNK         0.0837 
    105 H105      -76.9690   24.2773  -79.8960 H         1 UNK         0.0837 
    106 H106      -77.3715   25.0411  -75.9240 H         1 UNK         0.3020 
    107 H107      -75.1808   22.8977  -74.0671 H         1 UNK         0.1245 
    108 H108      -76.3769   25.7006  -73.8130 H         1 UNK         0.0781 
    109 H109      -74.6774   25.3898  -74.0385 H         1 UNK         0.0781 
    110 H110      -76.8843   25.1326  -70.0713 H         1 UNK         0.0836 
    111 H111      -77.7151   24.7375  -71.5566 H         1 UNK         0.0836 
    112 H112      -78.0099   23.8319  -74.0168 H         1 UNK         0.3022 
    113 H113      -79.0779   20.4458  -73.4567 H         1 UNK         0.0747 
    114 H114      -79.9732   21.2593  -71.3199 H         1 UNK         0.0793 
    115 H115      -78.2242   21.1834  -71.1990 H         1 UNK         0.0793 
    116 H116      -79.0201   22.7363  -71.4223 H         1 UNK         0.0793 
    117 H117      -79.8080   23.1823  -74.2447 H         1 UNK         0.3047 
    118 H118      -82.9055   22.0151  -75.4158 H         1 UNK         0.0822 
    119 H119      -84.0704   23.8247  -74.1666 H         1 UNK         0.0807 
    120 H120      -82.7363   23.9218  -73.0152 H         1 UNK         0.0807 
    121 H121      -83.7298   22.4742  -73.0994 H         1 UNK         0.0807 
    122 H122      -81.8688   24.6757  -75.1993 H         1 UNK         0.2946 
    123 H123      -79.3922   24.5605  -77.5557 H         1 UNK         0.1144 
    124 H124      -80.6222   26.0666  -79.0867 H         1 UNK         0.0793 
    125 H125      -82.1614   25.5839  -78.3708 H         1 UNK         0.0793 
    126 H126      -81.2026   24.4226  -79.2782 H         1 UNK         0.0793 
    127 H127      -80.7109   26.8676  -76.7529 H         1 UNK         0.2896 
@<TRIPOS>BOND
     1    1    2 1    
     2    1   67 1    
     3    1   68 1    
     4    1   69 1    
     5    2    3 2    
     6    2    4 am   BACKBONE|DICT|INTERRES
     7    4    5 1    
     8    4   70 1    
     9    5    6 1    
    10    5   65 1    
    11    5   71 1    
    12    6    7 1    
    13    6   72 1    
    14    6   73 1    
    15    7    8 1    
    16    8    9 1    
    17    8   74 1    
    18    8   75 1    
    19    9   10 ar   
    20    9   14 ar   
    21   10   11 ar   
    22   10   76 1    
    23   11   12 ar   
    24   11   48 1    
    25   12   13 ar   
    26   12   77 1    
    27   13   14 ar   
    28   13   15 1    
    29   14   78 1    
    30   15   16 1    
    31   15   79 1    
    32   15   80 1    
    33   16   17 1    
    34   17   18 1    
    35   17   81 1    
    36   17   82 1    
    37   18   19 1    
    38   18   22 1    
    39   18   83 1    
    40   19   20 am   BACKBONE|DICT|INTERRES
    41   19   21 2    
    42   20   84 1    
    43   20   85 1    
    44   22   23 am   BACKBONE|DICT|INTERRES
    45   22   86 1    
    46   23   24 2    
    47   23   25 1    
    48   25   26 1    
    49   25   27 1    
    50   25   87 1    
    51   26   88 1    
    52   26   89 1    
    53   26   90 1    
    54   27   28 am   BACKBONE|DICT|INTERRES
    55   27   91 1    
    56   28   29 2    
    57   28   30 1    
    58   30   31 1    
    59   30   32 1    
    60   30   92 1    
    61   31   93 1    
    62   31   94 1    
    63   31   95 1    
    64   32   33 am   BACKBONE|DICT|INTERRES
    65   32   96 1    
    66   33   34 2    
    67   33   35 1    
    68   35   36 1    
    69   35   37 1    
    70   35   97 1    
    71   36   98 1    
    72   36   99 1    
    73   36  100 1    
    74   37   38 am   BACKBONE|DICT|INTERRES
    75   37  101 1    
    76   38   39 2    
    77   38   40 1    
    78   40   41 1    
    79   40   42 1    
    80   40  102 1    
    81   41  103 1    
    82   41  104 1    
    83   41  105 1    
    84   42   43 am   BACKBONE|DICT|INTERRES
    85   42  106 1    
    86   43   44 2    
    87   43   45 1    
    88   45   46 1    
    89   45   49 1    
    90   45  107 1    
    91   46   47 1    
    92   46  108 1    
    93   46  109 1    
    94   47   48 1    
    95   48  110 1    
    96   48  111 1    
    97   49   50 am   BACKBONE|DICT|INTERRES
    98   49  112 1    
    99   50   51 2    
   100   50   52 1    
   101   52   53 1    
   102   52   54 1    
   103   52  113 1    
   104   53  114 1    
   105   53  115 1    
   106   53  116 1    
   107   54   55 am   BACKBONE|DICT|INTERRES
   108   54  117 1    
   109   55   56 2    
   110   55   57 1    
   111   57   58 1    
   112   57   59 1    
   113   57  118 1    
   114   58  119 1    
   115   58  120 1    
   116   58  121 1    
   117   59   60 am   BACKBONE|DICT|INTERRES
   118   59  122 1    
   119   60   61 2    
   120   60   62 1    
   121   62   63 1    
   122   62   64 1    
   123   62  123 1    
   124   63  124 1    
   125   63  125 1    
   126   63  126 1    
   127   64   65 am   BACKBONE|DICT|INTERRES
   128   64  127 1    
   129   65   66 2    
@<TRIPOS>SUBSTRUCTURE
     1 UNK         1 GROUP             0       ****    0 ROOT    
