@<TRIPOS>MOLECULE
3R135
127   129    1
SMALL
USER_CHARGES


@<TRIPOS>ATOM
      1 CA        -75.9301   23.1587  -73.8061 C.3       0 UNK        -0.1998 
      2 C         -77.2554   22.8438  -73.1361 C.2       0 UNK         0.4909 
      3 O         -77.7258   21.7084  -73.2016 O.2       0 UNK        -0.5240 
      4 N         -77.8571   23.8574  -72.5038 N.am      1 UNK        -0.4739 
      5 CA        -79.1465   23.8463  -71.8019 C.3       1 UNK         0.0864 
      6 C6        -79.4099   25.2110  -71.1038 C.3       11 UNK        -0.0881 
      7 S7        -79.0770   26.6665  -72.1642 S.3       11 UNK        -0.2682 
      8 C8        -78.5571   27.9096  -70.9419 C.3       11 UNK         0.0289 
      9 C9        -78.1189   29.1927  -71.6323 C.ar      11 UNK        -0.0687 
     10 C10       -79.0335   29.9164  -72.4012 C.ar      11 UNK        -0.0823 
     11 C11       -78.6288   31.0574  -73.0956 C.ar      11 UNK        -0.0830 
     12 C12       -77.3096   31.5000  -72.9813 C.ar      11 UNK        -0.1021 
     13 C13       -76.3857   30.8068  -72.1943 C.ar      11 UNK        -0.0753 
     14 C14       -76.7996   29.6454  -71.5255 C.ar      11 UNK        -0.0933 
     15 C15       -74.9579   31.3491  -72.1372 C.3       11 UNK         0.0166 
     16 S16       -73.8652   30.6065  -70.8773 S.3       11 UNK        -0.2615 
     17 C17       -72.3371   31.5667  -71.1750 C.3       11 UNK        -0.0865 
     18 CA        -71.2545   30.7968  -71.9777 C.3       10 UNK         0.0862 
     19 C         -70.4799   29.7714  -71.0967 C.2       10 UNK         0.5551 
     20 N         -70.4618   28.4830  -71.4160 N.am      10 UNK        -0.7319 
     21 O         -69.8641   30.1608  -70.1071 O.2       10 UNK        -0.5018 
     22 N         -71.7995   30.2555  -73.2317 N.am      10 UNK        -0.4509 
     23 C         -71.0916   29.9920  -74.3351 C.2       10 UNK         0.4899 
     24 O         -69.8999   30.2781  -74.4626 O.2       10 UNK        -0.4839 
     25 CA        -71.8449   29.2944  -75.4895 C.3       9 UNK         0.0222 
     26 CB        -70.8901   28.5408  -76.4386 C.3       9 UNK        -0.1966 
     27 N         -72.9345   28.3986  -75.0716 N.am      9 UNK        -0.4218 
     28 C         -72.8578   27.3700  -74.2106 C.2       9 UNK         0.5020 
     29 O         -71.8687   27.1117  -73.5241 O.2       9 UNK        -0.5274 
     30 CA        -74.0876   26.4521  -74.1254 C.3       8 UNK         0.0270 
     31 CB        -75.2285   27.1164  -73.3386 C.3       8 UNK        -0.1976 
     32 N         -74.5612   26.0415  -75.4492 N.am      8 UNK        -0.4313 
     33 C         -73.8597   25.2813  -76.3055 C.2       8 UNK         0.5041 
     34 O         -72.7662   24.7789  -76.0446 O.2       8 UNK        -0.5577 
     35 CA        -74.4762   25.0375  -77.6899 C.3       7 UNK         0.0284 
     36 CB        -75.3913   23.8079  -77.6656 C.3       7 UNK        -0.1958 
     37 N         -75.2301   26.2007  -78.1557 N.am      7 UNK        -0.4454 
     38 C         -74.6699   27.2575  -78.7588 C.2       7 UNK         0.5089 
     39 O         -73.4786   27.3245  -79.0618 O.2       7 UNK        -0.5125 
     40 CA        -75.5889   28.4493  -79.0740 C.3       6 UNK         0.0408 
     41 CB        -76.1785   28.3128  -80.4866 C.3       6 UNK        -0.1791 
     42 N         -76.6774   28.6230  -78.1094 N.am      6 UNK        -0.4762 
     43 C         -76.5171   28.9706  -76.8240 C.2       6 UNK         0.5007 
     44 O         -75.4216   29.1478  -76.2891 O.2       6 UNK        -0.5032 
     45 CA        -77.8077   29.1263  -75.9986 C.3       5 UNK         0.0783 
     46 C46       -78.4279   30.5273  -76.2602 C.3       11 UNK        -0.0857 
     47 S47       -80.0491   30.7792  -75.4518 S.3       11 UNK        -0.2512 
     48 C48       -79.6078   31.7874  -74.0006 C.3       11 UNK         0.0225 
     49 N         -78.7819   28.0522  -76.2253 N.am      5 UNK        -0.4615 
     50 C         -78.5922   26.7278  -76.1511 C.2       4 UNK         0.5053 
     51 O         -77.4927   26.1907  -75.9879 O.2       4 UNK        -0.5105 
     52 CA        -79.8869   25.8987  -76.2461 C.3       4 UNK         0.0263 
     53 CB        -80.7403   26.2707  -77.4810 C.3       4 UNK        -0.1981 
     54 N         -79.6961   24.4471  -76.1502 N.am      4 UNK        -0.4224 
     55 C         -79.1956   23.6067  -77.0702 C.2       3 UNK         0.4895 
     56 O         -78.7512   23.9703  -78.1596 O.2       3 UNK        -0.5091 
     57 CA        -79.2188   22.0938  -76.7507 C.3       3 UNK         0.0250 
     58 CB        -77.8177   21.4673  -76.8369 C.3       3 UNK        -0.1996 
     59 N         -79.8003   21.7775  -75.4427 N.am      3 UNK        -0.4254 
     60 C         -81.1131   21.6527  -75.1962 C.2       2 UNK         0.5004 
     61 O         -81.9811   21.6946  -76.0683 O.2       2 UNK        -0.5226 
     62 CA        -81.5342   21.4943  -73.7215 C.3       2 UNK         0.0269 
     63 CB        -81.7116   20.0092  -73.3676 C.3       2 UNK        -0.1926 
     64 N         -80.5906   22.1079  -72.7786 N.am      2 UNK        -0.4687 
     65 C         -80.3062   23.4174  -72.7299 C.2       1 UNK         0.5165 
     66 O         -80.8799   24.2500  -73.4326 O.2       1 UNK        -0.5079 
     67 H67       -75.4801   22.2592  -74.2257 H         1 UNK         0.0900 
     68 H68       -75.2287   23.5855  -73.0902 H         1 UNK         0.0900 
     69 H69       -76.0851   23.8732  -74.6121 H         1 UNK         0.0900 
     70 H70       -77.4303   24.7722  -72.5426 H         1 UNK         0.2959 
     71 H71       -79.0755   23.0924  -71.0149 H         1 UNK         0.1079 
     72 H72       -80.4334   25.2717  -70.7285 H         1 UNK         0.0837 
     73 H73       -78.7720   25.2794  -70.2213 H         1 UNK         0.0837 
     74 H74       -77.7473   27.5024  -70.3346 H         1 UNK         0.0685 
     75 H75       -79.3851   28.1236  -70.2646 H         1 UNK         0.0685 
     76 H76       -80.0514   29.5631  -72.4968 H         1 UNK         0.1434 
     77 H77       -76.9940   32.3836  -73.5198 H         1 UNK         0.1329 
     78 H78       -76.1001   29.0778  -70.9297 H         1 UNK         0.1335 
     79 H79       -74.5047   31.2196  -73.1208 H         1 UNK         0.0680 
     80 H80       -75.0027   32.4239  -71.9535 H         1 UNK         0.0680 
     81 H81       -71.9440   31.8999  -70.2125 H         1 UNK         0.1032 
     82 H82       -72.5879   32.4860  -71.7060 H         1 UNK         0.1032 
     83 H83       -70.5029   31.5383  -72.2559 H         1 UNK         0.0461 
     84 H84       -70.9652   28.1316  -72.2266 H         1 UNK         0.3453 
     85 H85       -69.9474   27.8416  -70.8346 H         1 UNK         0.3453 
     86 H86       -72.7600   29.9496  -73.1919 H         1 UNK         0.2984 
     87 H87       -72.3187   30.0919  -76.0635 H         1 UNK         0.0554 
     88 H88       -70.1490   29.2134  -76.8720 H         1 UNK         0.0847 
     89 H89       -71.4332   28.0849  -77.2666 H         1 UNK         0.0847 
     90 H90       -70.3499   27.7492  -75.9180 H         1 UNK         0.0847 
     91 H91       -73.8245   28.5543  -75.5438 H         1 UNK         0.3141 
     92 H92       -73.7882   25.5499  -73.5886 H         1 UNK         0.0743 
     93 H93       -74.9101   27.3512  -72.3223 H         1 UNK         0.0784 
     94 H94       -75.5555   28.0484  -73.7991 H         1 UNK         0.0784 
     95 H95       -76.0966   26.4622  -73.2645 H         1 UNK         0.0784 
     96 H96       -75.4875   26.3519  -75.7257 H         1 UNK         0.3213 
     97 H97       -73.6606   24.8343  -78.3877 H         1 UNK         0.0855 
     98 H98       -76.2372   23.9604  -76.9974 H         1 UNK         0.0814 
     99 H99       -74.8535   22.9235  -77.3215 H         1 UNK         0.0814 
    100 H100      -75.7856   23.5863  -78.6574 H         1 UNK         0.0814 
    101 H101      -76.2115   26.2392  -77.9109 H         1 UNK         0.3105 
    102 H102      -74.9748   29.3520  -79.0476 H         1 UNK         0.0547 
    103 H103      -75.3873   28.2067  -81.2303 H         1 UNK         0.0837 
    104 H104      -76.8251   27.4386  -80.5730 H         1 UNK         0.0837 
    105 H105      -76.7614   29.1920  -80.7614 H         1 UNK         0.0837 
    106 H106      -77.6175   28.4808  -78.4506 H         1 UNK         0.3020 
    107 H107      -77.5225   29.0676  -74.9461 H         1 UNK         0.1245 
    108 H108      -78.5842   30.6821  -77.3297 H         1 UNK         0.0781 
    109 H109      -77.7405   31.3145  -75.9447 H         1 UNK         0.0781 
    110 H110      -80.5138   32.0209  -73.4396 H         1 UNK         0.0836 
    111 H111      -79.1990   32.7422  -74.3352 H         1 UNK         0.0836 
    112 H112      -79.7295   28.3811  -76.3424 H         1 UNK         0.3022 
    113 H113      -80.4672   26.1605  -75.3599 H         1 UNK         0.0747 
    114 H114      -81.6180   25.6292  -77.5618 H         1 UNK         0.0793 
    115 H115      -80.1745   26.1794  -78.4088 H         1 UNK         0.0793 
    116 H116      -81.1054   27.2964  -77.4241 H         1 UNK         0.0793 
    117 H117      -80.0206   24.0537  -75.2740 H         1 UNK         0.3047 
    118 H118      -79.8313   21.6268  -77.5249 H         1 UNK         0.0822 
    119 H119      -77.8571   20.3892  -76.6805 H         1 UNK         0.0807 
    120 H120      -77.1406   21.8858  -76.0944 H         1 UNK         0.0807 
    121 H121      -77.3742   21.6318  -77.8195 H         1 UNK         0.0807 
    122 H122      -79.1561   21.7108  -74.6600 H         1 UNK         0.2946 
    123 H123      -82.4980   21.9956  -73.6054 H         1 UNK         0.1144 
    124 H124      -82.4260   19.5307  -74.0392 H         1 UNK         0.0793 
    125 H125      -82.0905   19.8851  -72.3530 H         1 UNK         0.0793 
    126 H126      -80.7721   19.4606  -73.4461 H         1 UNK         0.0793 
    127 H127      -80.0272   21.4740  -72.2279 H         1 UNK         0.2896 
@<TRIPOS>BOND
     1    1    2 1    
     2    1   67 1    
     3    1   68 1    
     4    1   69 1    
     5    2    3 2    
     6    2    4 am   BACKBONE|DICT|INTERRES
     7    4    5 1    
     8    4   70 1    
     9    5    6 1    
    10    5   65 1    
    11    5   71 1    
    12    6    7 1    
    13    6   72 1    
    14    6   73 1    
    15    7    8 1    
    16    8    9 1    
    17    8   74 1    
    18    8   75 1    
    19    9   10 ar   
    20    9   14 ar   
    21   10   11 ar   
    22   10   76 1    
    23   11   12 ar   
    24   11   48 1    
    25   12   13 ar   
    26   12   77 1    
    27   13   14 ar   
    28   13   15 1    
    29   14   78 1    
    30   15   16 1    
    31   15   79 1    
    32   15   80 1    
    33   16   17 1    
    34   17   18 1    
    35   17   81 1    
    36   17   82 1    
    37   18   19 1    
    38   18   22 1    
    39   18   83 1    
    40   19   20 am   BACKBONE|DICT|INTERRES
    41   19   21 2    
    42   20   84 1    
    43   20   85 1    
    44   22   23 am   BACKBONE|DICT|INTERRES
    45   22   86 1    
    46   23   24 2    
    47   23   25 1    
    48   25   26 1    
    49   25   27 1    
    50   25   87 1    
    51   26   88 1    
    52   26   89 1    
    53   26   90 1    
    54   27   28 am   BACKBONE|DICT|INTERRES
    55   27   91 1    
    56   28   29 2    
    57   28   30 1    
    58   30   31 1    
    59   30   32 1    
    60   30   92 1    
    61   31   93 1    
    62   31   94 1    
    63   31   95 1    
    64   32   33 am   BACKBONE|DICT|INTERRES
    65   32   96 1    
    66   33   34 2    
    67   33   35 1    
    68   35   36 1    
    69   35   37 1    
    70   35   97 1    
    71   36   98 1    
    72   36   99 1    
    73   36  100 1    
    74   37   38 am   BACKBONE|DICT|INTERRES
    75   37  101 1    
    76   38   39 2    
    77   38   40 1    
    78   40   41 1    
    79   40   42 1    
    80   40  102 1    
    81   41  103 1    
    82   41  104 1    
    83   41  105 1    
    84   42   43 am   BACKBONE|DICT|INTERRES
    85   42  106 1    
    86   43   44 2    
    87   43   45 1    
    88   45   46 1    
    89   45   49 1    
    90   45  107 1    
    91   46   47 1    
    92   46  108 1    
    93   46  109 1    
    94   47   48 1    
    95   48  110 1    
    96   48  111 1    
    97   49   50 am   BACKBONE|DICT|INTERRES
    98   49  112 1    
    99   50   51 2    
   100   50   52 1    
   101   52   53 1    
   102   52   54 1    
   103   52  113 1    
   104   53  114 1    
   105   53  115 1    
   106   53  116 1    
   107   54   55 am   BACKBONE|DICT|INTERRES
   108   54  117 1    
   109   55   56 2    
   110   55   57 1    
   111   57   58 1    
   112   57   59 1    
   113   57  118 1    
   114   58  119 1    
   115   58  120 1    
   116   58  121 1    
   117   59   60 am   BACKBONE|DICT|INTERRES
   118   59  122 1    
   119   60   61 2    
   120   60   62 1    
   121   62   63 1    
   122   62   64 1    
   123   62  123 1    
   124   63  124 1    
   125   63  125 1    
   126   63  126 1    
   127   64   65 am   BACKBONE|DICT|INTERRES
   128   64  127 1    
   129   65   66 2    
@<TRIPOS>SUBSTRUCTURE
     1 UNK         1 GROUP             0       ****    0 ROOT    
