@<TRIPOS>MOLECULE
3R135
127   129    1
SMALL
USER_CHARGES


@<TRIPOS>ATOM
      1 CA        -79.3204   30.1010  -71.5640 C.3       0 UNK        -0.1998 
      2 C         -80.6106   29.4229  -71.9944 C.2       0 UNK         0.4909 
      3 O         -81.6418   29.5837  -71.3410 O.2       0 UNK        -0.5240 
      4 N         -80.5575   28.6621  -73.0949 N.am      1 UNK        -0.4739 
      5 CA        -81.7049   27.9534  -73.6815 C.3       1 UNK         0.0864 
      6 C6        -81.4557   27.5408  -75.1547 C.3       11 UNK        -0.0881 
      7 S7        -80.8754   28.8961  -76.2319 S.3       11 UNK        -0.2682 
      8 C8        -79.1955   28.3275  -76.6599 C.3       11 UNK         0.0289 
      9 C9        -78.2357   28.4768  -75.4889 C.ar      11 UNK        -0.0687 
     10 C10       -77.9544   27.3890  -74.6579 C.ar      11 UNK        -0.0823 
     11 C11       -77.0727   27.5224  -73.5786 C.ar      11 UNK        -0.0830 
     12 C12       -76.4858   28.7673  -73.3328 C.ar      11 UNK        -0.1021 
     13 C13       -76.7576   29.8659  -74.1550 C.ar      11 UNK        -0.0753 
     14 C14       -77.6300   29.7097  -75.2357 C.ar      11 UNK        -0.0933 
     15 C15       -76.1555   31.2349  -73.8593 C.3       11 UNK         0.0166 
     16 S16       -74.3351   31.2342  -73.9055 S.3       11 UNK        -0.2615 
     17 C17       -73.9476   31.2279  -72.1196 C.3       11 UNK        -0.0865 
     18 CA        -72.4679   30.8582  -71.8141 C.3       10 UNK         0.0862 
     19 C         -72.1151   31.0077  -70.3021 C.2       10 UNK         0.5551 
     20 N         -71.2280   30.1909  -69.7468 N.am      10 UNK        -0.7319 
     21 O         -72.6267   31.8975  -69.6263 O.2       10 UNK        -0.5018 
     22 N         -72.0491   29.5827  -72.4220 N.am      10 UNK        -0.4509 
     23 C         -72.5448   28.3657  -72.1717 C.2       10 UNK         0.4899 
     24 O         -73.4519   28.1418  -71.3689 O.2       10 UNK        -0.4839 
     25 CA        -71.9060   27.2077  -72.9652 C.3       9 UNK         0.0222 
     26 CB        -72.4018   25.8243  -72.5030 C.3       9 UNK        -0.1966 
     27 N         -72.0971   27.3532  -74.4158 N.am      9 UNK        -0.4218 
     28 C         -71.3872   28.1855  -75.1938 C.2       9 UNK         0.5020 
     29 O         -70.5175   28.9412  -74.7545 O.2       9 UNK        -0.5274 
     30 CA        -71.6549   28.1847  -76.7045 C.3       8 UNK         0.0270 
     31 CB        -70.6475   27.2620  -77.4115 C.3       8 UNK        -0.1976 
     32 N         -73.0090   27.7558  -77.0617 N.am      8 UNK        -0.4313 
     33 C         -73.9280   28.5440  -77.6425 C.2       8 UNK         0.5041 
     34 O         -73.7915   29.7625  -77.7682 O.2       8 UNK        -0.5577 
     35 CA        -75.1951   27.8635  -78.2186 C.3       7 UNK         0.0284 
     36 CB        -75.8020   28.6421  -79.4034 C.3       7 UNK        -0.1958 
     37 N         -75.0044   26.4527  -78.5828 N.am      7 UNK        -0.4454 
     38 C         -74.0509   25.9158  -79.3666 C.2       7 UNK         0.5089 
     39 O         -73.3107   26.5780  -80.0947 O.2       7 UNK        -0.5125 
     40 CA        -73.8436   24.3830  -79.2620 C.3       6 UNK         0.0408 
     41 CB        -72.3618   23.9844  -79.4214 C.3       6 UNK        -0.1791 
     42 N         -74.4027   23.8007  -78.0301 N.am      6 UNK        -0.4762 
     43 C         -74.1452   24.1741  -76.7645 C.2       6 UNK         0.5007 
     44 O         -73.2082   24.9158  -76.4575 O.2       6 UNK        -0.5032 
     45 CA        -75.1770   23.7823  -75.6774 C.3       5 UNK         0.0783 
     46 C46       -75.4928   25.0279  -74.8027 C.3       11 UNK        -0.0857 
     47 S47       -76.6831   24.7155  -73.4576 S.3       11 UNK        -0.2512 
     48 C48       -76.7497   26.3522  -72.6480 C.3       11 UNK         0.0225 
     49 N         -76.4004   23.1406  -76.1996 N.am      5 UNK        -0.4615 
     50 C         -77.3165   23.6800  -77.0208 C.2       4 UNK         0.5053 
     51 O         -77.1965   24.7817  -77.5583 O.2       4 UNK        -0.5105 
     52 CA        -78.5766   22.8362  -77.2810 C.3       4 UNK         0.0263 
     53 CB        -78.2611   21.6352  -78.1882 C.3       4 UNK        -0.1981 
     54 N         -79.1983   22.3760  -76.0340 N.am      4 UNK        -0.4224 
     55 C         -79.7562   23.2067  -75.1427 C.2       3 UNK         0.4895 
     56 O         -79.8793   24.4173  -75.3383 O.2       3 UNK        -0.5091 
     57 CA        -80.2535   22.6087  -73.8171 C.3       3 UNK         0.0250 
     58 CB        -79.2196   21.6687  -73.1616 C.3       3 UNK        -0.1996 
     59 N         -80.5546   23.7268  -72.9278 N.am      3 UNK        -0.4254 
     60 C         -81.3375   23.7201  -71.8459 C.2       2 UNK         0.5004 
     61 O         -81.9120   22.7177  -71.4191 O.2       2 UNK        -0.5226 
     62 CA        -81.5033   25.0612  -71.1070 C.3       2 UNK         0.0269 
     63 CB        -80.5506   25.1259  -69.9017 C.3       2 UNK        -0.1926 
     64 N         -81.2654   26.2313  -71.9610 N.am      2 UNK        -0.4687 
     65 C         -82.1385   26.7181  -72.8565 C.2       1 UNK         0.5165 
     66 O         -83.2508   26.2255  -73.0502 O.2       1 UNK        -0.5079 
     67 H67       -78.9415   30.7386  -72.3619 H         1 UNK         0.0900 
     68 H68       -78.5609   29.3594  -71.3186 H         1 UNK         0.0900 
     69 H69       -79.4837   30.7227  -70.6839 H         1 UNK         0.0900 
     70 H70       -79.6915   28.5949  -73.6150 H         1 UNK         0.2959 
     71 H71       -82.5523   28.6427  -73.6726 H         1 UNK         0.1079 
     72 H72       -80.7379   26.7259  -75.2010 H         1 UNK         0.0837 
     73 H73       -82.3744   27.1462  -75.5931 H         1 UNK         0.0837 
     74 H74       -79.2284   27.2913  -77.0025 H         1 UNK         0.0685 
     75 H75       -78.8306   28.9126  -77.5054 H         1 UNK         0.0685 
     76 H76       -78.4150   26.4330  -74.8608 H         1 UNK         0.1434 
     77 H77       -75.8154   28.8807  -72.4937 H         1 UNK         0.1329 
     78 H78       -77.8547   30.5530  -75.8746 H         1 UNK         0.1335 
     79 H79       -76.5065   31.9685  -74.5867 H         1 UNK         0.0680 
     80 H80       -76.5098   31.5836  -72.8885 H         1 UNK         0.0680 
     81 H81       -74.6207   30.5503  -71.5946 H         1 UNK         0.1032 
     82 H82       -74.1737   32.2250  -71.7373 H         1 UNK         0.1032 
     83 H83       -71.8508   31.6111  -72.3056 H         1 UNK         0.0461 
     84 H84       -70.7927   29.4659  -70.2937 H         1 UNK         0.3453 
     85 H85       -70.9961   30.2999  -68.7720 H         1 UNK         0.3453 
     86 H86       -71.3253   29.6460  -73.1322 H         1 UNK         0.2984 
     87 H87       -70.8329   27.2376  -72.7636 H         1 UNK         0.0554 
     88 H88       -72.0169   25.0240  -73.1353 H         1 UNK         0.0847 
     89 H89       -73.4881   25.7573  -72.4901 H         1 UNK         0.0847 
     90 H90       -72.0661   25.6211  -71.4854 H         1 UNK         0.0847 
     91 H91       -72.7903   26.7617  -74.8497 H         1 UNK         0.3141 
     92 H92       -71.4750   29.2022  -77.0580 H         1 UNK         0.0743 
     93 H93       -69.6217   27.5712  -77.2062 H         1 UNK         0.0784 
     94 H94       -70.7488   26.2266  -77.0835 H         1 UNK         0.0784 
     95 H95       -70.7827   27.2844  -78.4933 H         1 UNK         0.0784 
     96 H96       -73.1910   26.7578  -76.9960 H         1 UNK         0.3213 
     97 H97       -75.9278   27.8691  -77.4098 H         1 UNK         0.0855 
     98 H98       -76.0736   29.6566  -79.1091 H         1 UNK         0.0814 
     99 H99       -76.7082   28.1607  -79.7708 H         1 UNK         0.0814 
    100 H100      -75.1005   28.7191  -80.2347 H         1 UNK         0.0814 
    101 H101      -75.6269   25.8040  -78.1062 H         1 UNK         0.3105 
    102 H102      -74.4003   23.9432  -80.0906 H         1 UNK         0.0547 
    103 H103      -71.9748   24.2924  -80.3934 H         1 UNK         0.0837 
    104 H104      -71.7329   24.4482  -78.6613 H         1 UNK         0.0837 
    105 H105      -72.2315   22.9048  -79.3510 H         1 UNK         0.0837 
    106 H106      -75.2071   23.2044  -78.1663 H         1 UNK         0.3020 
    107 H107      -74.6805   23.0430  -75.0468 H         1 UNK         0.1245 
    108 H108      -75.8798   25.8310  -75.4305 H         1 UNK         0.0781 
    109 H109      -74.5845   25.4203  -74.3518 H         1 UNK         0.0781 
    110 H110      -75.7935   26.5230  -72.1511 H         1 UNK         0.0836 
    111 H111      -77.5017   26.3181  -71.8592 H         1 UNK         0.0836 
    112 H112      -76.5943   22.2247  -75.8213 H         1 UNK         0.3022 
    113 H113      -79.2956   23.4721  -77.8027 H         1 UNK         0.0747 
    114 H114      -79.1683   21.0904  -78.4503 H         1 UNK         0.0793 
    115 H115      -77.8025   21.9624  -79.1225 H         1 UNK         0.0793 
    116 H116      -77.5744   20.9319  -77.7156 H         1 UNK         0.0793 
    117 H117      -79.1440   21.3899  -75.8246 H         1 UNK         0.3047 
    118 H118      -81.1749   22.0596  -74.0210 H         1 UNK         0.0822 
    119 H119      -79.5663   21.3103  -72.1922 H         1 UNK         0.0807 
    120 H120      -78.2634   22.1688  -73.0054 H         1 UNK         0.0807 
    121 H121      -79.0346   20.7859  -73.7737 H         1 UNK         0.0807 
    122 H122      -80.1809   24.6092  -73.2543 H         1 UNK         0.2946 
    123 H123      -82.5303   25.1034  -70.7364 H         1 UNK         0.1144 
    124 H124      -80.7001   26.0396  -69.3260 H         1 UNK         0.0793 
    125 H125      -79.5049   25.0889  -70.2102 H         1 UNK         0.0793 
    126 H126      -80.7203   24.2871  -69.2251 H         1 UNK         0.0793 
    127 H127      -80.3825   26.7089  -71.8542 H         1 UNK         0.2896 
@<TRIPOS>BOND
     1    1    2 1    
     2    1   67 1    
     3    1   68 1    
     4    1   69 1    
     5    2    3 2    
     6    2    4 am   BACKBONE|DICT|INTERRES
     7    4    5 1    
     8    4   70 1    
     9    5    6 1    
    10    5   65 1    
    11    5   71 1    
    12    6    7 1    
    13    6   72 1    
    14    6   73 1    
    15    7    8 1    
    16    8    9 1    
    17    8   74 1    
    18    8   75 1    
    19    9   10 ar   
    20    9   14 ar   
    21   10   11 ar   
    22   10   76 1    
    23   11   12 ar   
    24   11   48 1    
    25   12   13 ar   
    26   12   77 1    
    27   13   14 ar   
    28   13   15 1    
    29   14   78 1    
    30   15   16 1    
    31   15   79 1    
    32   15   80 1    
    33   16   17 1    
    34   17   18 1    
    35   17   81 1    
    36   17   82 1    
    37   18   19 1    
    38   18   22 1    
    39   18   83 1    
    40   19   20 am   BACKBONE|DICT|INTERRES
    41   19   21 2    
    42   20   84 1    
    43   20   85 1    
    44   22   23 am   BACKBONE|DICT|INTERRES
    45   22   86 1    
    46   23   24 2    
    47   23   25 1    
    48   25   26 1    
    49   25   27 1    
    50   25   87 1    
    51   26   88 1    
    52   26   89 1    
    53   26   90 1    
    54   27   28 am   BACKBONE|DICT|INTERRES
    55   27   91 1    
    56   28   29 2    
    57   28   30 1    
    58   30   31 1    
    59   30   32 1    
    60   30   92 1    
    61   31   93 1    
    62   31   94 1    
    63   31   95 1    
    64   32   33 am   BACKBONE|DICT|INTERRES
    65   32   96 1    
    66   33   34 2    
    67   33   35 1    
    68   35   36 1    
    69   35   37 1    
    70   35   97 1    
    71   36   98 1    
    72   36   99 1    
    73   36  100 1    
    74   37   38 am   BACKBONE|DICT|INTERRES
    75   37  101 1    
    76   38   39 2    
    77   38   40 1    
    78   40   41 1    
    79   40   42 1    
    80   40  102 1    
    81   41  103 1    
    82   41  104 1    
    83   41  105 1    
    84   42   43 am   BACKBONE|DICT|INTERRES
    85   42  106 1    
    86   43   44 2    
    87   43   45 1    
    88   45   46 1    
    89   45   49 1    
    90   45  107 1    
    91   46   47 1    
    92   46  108 1    
    93   46  109 1    
    94   47   48 1    
    95   48  110 1    
    96   48  111 1    
    97   49   50 am   BACKBONE|DICT|INTERRES
    98   49  112 1    
    99   50   51 2    
   100   50   52 1    
   101   52   53 1    
   102   52   54 1    
   103   52  113 1    
   104   53  114 1    
   105   53  115 1    
   106   53  116 1    
   107   54   55 am   BACKBONE|DICT|INTERRES
   108   54  117 1    
   109   55   56 2    
   110   55   57 1    
   111   57   58 1    
   112   57   59 1    
   113   57  118 1    
   114   58  119 1    
   115   58  120 1    
   116   58  121 1    
   117   59   60 am   BACKBONE|DICT|INTERRES
   118   59  122 1    
   119   60   61 2    
   120   60   62 1    
   121   62   63 1    
   122   62   64 1    
   123   62  123 1    
   124   63  124 1    
   125   63  125 1    
   126   63  126 1    
   127   64   65 am   BACKBONE|DICT|INTERRES
   128   64  127 1    
   129   65   66 2    
@<TRIPOS>SUBSTRUCTURE
     1 UNK         1 GROUP             0       ****    0 ROOT    
