@<TRIPOS>MOLECULE
3R135
127   129    1
SMALL
USER_CHARGES


@<TRIPOS>ATOM
      1 CA        -83.0019   22.9965  -74.1721 C.3       0 UNK        -0.1998 
      2 C         -81.8724   22.8822  -73.1522 C.2       0 UNK         0.4909 
      3 O         -81.3354   21.7923  -72.9684 O.2       0 UNK        -0.5240 
      4 N         -81.4820   23.9594  -72.4585 N.am      1 UNK        -0.4739 
      5 CA        -81.9086   25.3510  -72.6350 C.3       1 UNK         0.0864 
      6 C6        -81.6741   26.1932  -71.3497 C.3       11 UNK        -0.0881 
      7 S7        -80.0434   25.9529  -70.5457 S.3       11 UNK        -0.2682 
      8 C8        -79.8371   27.5172  -69.6387 C.3       11 UNK         0.0289 
      9 C9        -78.8299   28.4413  -70.3101 C.ar      11 UNK        -0.0687 
     10 C10       -79.1851   29.1673  -71.4502 C.ar      11 UNK        -0.0823 
     11 C11       -78.2744   30.0510  -72.0361 C.ar      11 UNK        -0.0830 
     12 C12       -77.0119   30.2193  -71.4646 C.ar      11 UNK        -0.1021 
     13 C13       -76.6246   29.4773  -70.3419 C.ar      11 UNK        -0.0753 
     14 C14       -77.5464   28.5914  -69.7727 C.ar      11 UNK        -0.0933 
     15 C15       -75.2402   29.6013  -69.6970 C.3       11 UNK         0.0166 
     16 S16       -74.0380   30.6797  -70.5561 S.3       11 UNK        -0.2615 
     17 C17       -73.6208   29.6690  -72.0185 C.3       11 UNK        -0.0865 
     18 CA        -72.4706   30.2886  -72.8561 C.3       10 UNK         0.0862 
     19 C         -71.0937   30.0979  -72.1581 C.2       10 UNK         0.5551 
     20 N         -70.5015   31.1640  -71.6374 N.am      10 UNK        -0.7319 
     21 O         -70.5837   28.9844  -72.0551 O.2       10 UNK        -0.5018 
     22 N         -72.4834   29.7426  -74.2195 N.am      10 UNK        -0.4509 
     23 C         -71.6786   30.1100  -75.2271 C.2       10 UNK         0.4899 
     24 O         -70.9078   31.0699  -75.1792 O.2       10 UNK        -0.4839 
     25 CA        -71.7575   29.2400  -76.4994 C.3       9 UNK         0.0222 
     26 CB        -70.5572   29.4305  -77.4511 C.3       9 UNK        -0.1966 
     27 N         -71.9738   27.8240  -76.1719 N.am      9 UNK        -0.4218 
     28 C         -71.1477   27.0170  -75.4856 C.2       9 UNK         0.5020 
     29 O         -69.9881   27.3027  -75.1853 O.2       9 UNK        -0.5274 
     30 CA        -71.7255   25.6756  -75.0078 C.3       8 UNK         0.0270 
     31 CB        -72.3027   25.8283  -73.5902 C.3       8 UNK        -0.1976 
     32 N         -72.7580   25.1422  -75.8986 N.am      8 UNK        -0.4313 
     33 C         -72.4971   24.5492  -77.0714 C.2       8 UNK         0.5041 
     34 O         -71.3606   24.3784  -77.5156 O.2       8 UNK        -0.5577 
     35 CA        -73.7031   24.0596  -77.8884 C.3       7 UNK         0.0284 
     36 CB        -74.2465   22.7411  -77.3149 C.3       7 UNK        -0.1958 
     37 N         -74.7795   25.0500  -77.9764 N.am      7 UNK        -0.4454 
     38 C         -74.6779   26.2191  -78.6258 C.2       7 UNK         0.5089 
     39 O         -73.6665   26.5873  -79.2234 O.2       7 UNK        -0.5125 
     40 CA        -75.9084   27.1412  -78.6080 C.3       6 UNK         0.0408 
     41 CB        -76.9329   26.6964  -79.6634 C.3       6 UNK        -0.1791 
     42 N         -76.5595   27.2194  -77.3005 N.am      6 UNK        -0.4762 
     43 C         -75.9983   27.7199  -76.1891 C.2       6 UNK         0.5007 
     44 O         -74.8513   28.1648  -76.1318 O.2       6 UNK        -0.5032 
     45 CA        -76.8501   27.6491  -74.9072 C.3       5 UNK         0.0783 
     46 C46       -78.0494   28.6310  -74.9698 C.3       11 UNK        -0.0857 
     47 S47       -77.5769   30.3709  -74.7010 S.3       11 UNK        -0.2512 
     48 C48       -78.6406   30.8276  -73.2920 C.3       11 UNK         0.0225 
     49 N         -77.2962   26.2786  -74.6422 N.am      5 UNK        -0.4615 
     50 C         -76.5243   25.1849  -74.5666 C.2       4 UNK         0.5053 
     51 O         -75.2963   25.1946  -74.6370 O.2       4 UNK        -0.5105 
     52 CA        -77.2562   23.8392  -74.4587 C.3       4 UNK         0.0263 
     53 CB        -77.6676   23.5514  -73.0061 C.3       4 UNK        -0.1981 
     54 N         -78.4307   23.7859  -75.3327 N.am      4 UNK        -0.4224 
     55 C         -78.3798   23.7724  -76.6733 C.2       3 UNK         0.4895 
     56 O         -77.3332   23.7624  -77.3201 O.2       3 UNK        -0.5091 
     57 CA        -79.7247   23.8165  -77.4185 C.3       3 UNK         0.0250 
     58 CB        -80.3963   22.4335  -77.4132 C.3       3 UNK        -0.1996 
     59 N         -80.6443   24.8125  -76.8641 N.am      3 UNK        -0.4254 
     60 C         -80.4281   26.1355  -76.8753 C.2       2 UNK         0.5004 
     61 O         -79.4602   26.6658  -77.4202 O.2       2 UNK        -0.5226 
     62 CA        -81.4373   27.0102  -76.1050 C.3       2 UNK         0.0269 
     63 CB        -82.6118   27.4007  -77.0157 C.3       2 UNK        -0.1926 
     64 N         -81.9561   26.4032  -74.8683 N.am      2 UNK        -0.4687 
     65 C         -81.1947   25.9563  -73.8578 C.2       1 UNK         0.5165 
     66 O         -79.9657   25.9787  -73.8825 O.2       1 UNK        -0.5079 
     67 H67       -83.2538   22.0130  -74.5689 H         1 UNK         0.0900 
     68 H68       -82.7171   23.6251  -75.0125 H         1 UNK         0.0900 
     69 H69       -83.9033   23.4022  -73.7139 H         1 UNK         0.0900 
     70 H70       -80.7297   23.8531  -71.7919 H         1 UNK         0.2959 
     71 H71       -82.9828   25.3670  -72.8270 H         1 UNK         0.1079 
     72 H72       -81.8317   27.2535  -71.5558 H         1 UNK         0.0837 
     73 H73       -82.4324   25.9280  -70.6113 H         1 UNK         0.0837 
     74 H74       -79.5123   27.2825  -68.6239 H         1 UNK         0.0685 
     75 H75       -80.7954   28.0273  -69.5321 H         1 UNK         0.0685 
     76 H76       -80.1694   29.0419  -71.8791 H         1 UNK         0.1434 
     77 H77       -76.3352   30.9247  -71.9237 H         1 UNK         0.1329 
     78 H78       -77.2659   28.0234  -68.8959 H         1 UNK         0.1335 
     79 H79       -75.3708   29.9894  -68.6860 H         1 UNK         0.0680 
     80 H80       -74.8027   28.6076  -69.5897 H         1 UNK         0.0680 
     81 H81       -73.3768   28.6515  -71.7056 H         1 UNK         0.1032 
     82 H82       -74.5199   29.5845  -72.6300 H         1 UNK         0.1032 
     83 H83       -72.6641   31.3583  -72.9612 H         1 UNK         0.0461 
     84 H84       -69.6157   31.0548  -71.1693 H         1 UNK         0.3453 
     85 H85       -70.9243   32.0766  -71.7059 H         1 UNK         0.3453 
     86 H86       -73.0882   28.9506  -74.3783 H         1 UNK         0.2984 
     87 H87       -72.6506   29.5651  -77.0347 H         1 UNK         0.0554 
     88 H88       -70.6410   28.7877  -78.3274 H         1 UNK         0.0847 
     89 H89       -69.6082   29.2104  -76.9617 H         1 UNK         0.0847 
     90 H90       -70.5041   30.4596  -77.8080 H         1 UNK         0.0847 
     91 H91       -72.9215   27.4999  -76.3378 H         1 UNK         0.3141 
     92 H92       -70.9034   24.9579  -74.9618 H         1 UNK         0.0743 
     93 H93       -71.5463   26.2018  -72.8980 H         1 UNK         0.0784 
     94 H94       -73.1383   26.5288  -73.5669 H         1 UNK         0.0784 
     95 H95       -72.6570   24.8735  -73.2012 H         1 UNK         0.0784 
     96 H96       -73.7232   25.2062  -75.5744 H         1 UNK         0.3213 
     97 H97       -73.3527   23.8632  -78.9040 H         1 UNK         0.0855 
     98 H98       -74.6536   22.8741  -76.3124 H         1 UNK         0.0814 
     99 H99       -73.4595   21.9885  -77.2511 H         1 UNK         0.0814 
    100 H100      -75.0359   22.3307  -77.9448 H         1 UNK         0.0814 
    101 H101      -75.6712   24.7960  -77.5595 H         1 UNK         0.3105 
    102 H102      -75.5714   28.1473  -78.8664 H         1 UNK         0.0547 
    103 H103      -77.7666   27.3959  -79.7254 H         1 UNK         0.0837 
    104 H104      -76.4782   26.6443  -80.6536 H         1 UNK         0.0837 
    105 H105      -77.3424   25.7108  -79.4381 H         1 UNK         0.0837 
    106 H106      -77.5188   26.8840  -77.2524 H         1 UNK         0.3020 
    107 H107      -76.2118   27.9312  -74.0673 H         1 UNK         0.1245 
    108 H108      -78.7892   28.3540  -74.2187 H         1 UNK         0.0781 
    109 H109      -78.5705   28.5701  -75.9248 H         1 UNK         0.0781 
    110 H110      -79.6858   30.6702  -73.5632 H         1 UNK         0.0836 
    111 H111      -78.5311   31.8953  -73.0964 H         1 UNK         0.0836 
    112 H112      -78.2978   26.1559  -74.5015 H         1 UNK         0.3022 
    113 H113      -76.5661   23.0552  -74.7764 H         1 UNK         0.0747 
    114 H114      -78.1681   22.5869  -72.9177 H         1 UNK         0.0793 
    115 H115      -76.7934   23.5251  -72.3543 H         1 UNK         0.0793 
    116 H116      -78.3396   24.3148  -72.6136 H         1 UNK         0.0793 
    117 H117      -79.3296   23.8697  -74.8818 H         1 UNK         0.3047 
    118 H118      -79.5182   24.0925  -78.4551 H         1 UNK         0.0822 
    119 H119      -79.7341   21.6788  -77.8401 H         1 UNK         0.0807 
    120 H120      -81.3094   22.4335  -78.0089 H         1 UNK         0.0807 
    121 H121      -80.6530   22.1075  -76.4044 H         1 UNK         0.0807 
    122 H122      -81.4802   24.4704  -76.4172 H         1 UNK         0.2946 
    123 H123      -80.9137   27.9247  -75.8200 H         1 UNK         0.1144 
    124 H124      -82.2545   27.8707  -77.9334 H         1 UNK         0.0793 
    125 H125      -83.2737   28.1156  -76.5264 H         1 UNK         0.0793 
    126 H126      -83.2071   26.5335  -77.3043 H         1 UNK         0.0793 
    127 H127      -82.9619   26.3626  -74.7817 H         1 UNK         0.2896 
@<TRIPOS>BOND
     1    1    2 1    
     2    1   67 1    
     3    1   68 1    
     4    1   69 1    
     5    2    3 2    
     6    2    4 am   BACKBONE|DICT|INTERRES
     7    4    5 1    
     8    4   70 1    
     9    5    6 1    
    10    5   65 1    
    11    5   71 1    
    12    6    7 1    
    13    6   72 1    
    14    6   73 1    
    15    7    8 1    
    16    8    9 1    
    17    8   74 1    
    18    8   75 1    
    19    9   10 ar   
    20    9   14 ar   
    21   10   11 ar   
    22   10   76 1    
    23   11   12 ar   
    24   11   48 1    
    25   12   13 ar   
    26   12   77 1    
    27   13   14 ar   
    28   13   15 1    
    29   14   78 1    
    30   15   16 1    
    31   15   79 1    
    32   15   80 1    
    33   16   17 1    
    34   17   18 1    
    35   17   81 1    
    36   17   82 1    
    37   18   19 1    
    38   18   22 1    
    39   18   83 1    
    40   19   20 am   BACKBONE|DICT|INTERRES
    41   19   21 2    
    42   20   84 1    
    43   20   85 1    
    44   22   23 am   BACKBONE|DICT|INTERRES
    45   22   86 1    
    46   23   24 2    
    47   23   25 1    
    48   25   26 1    
    49   25   27 1    
    50   25   87 1    
    51   26   88 1    
    52   26   89 1    
    53   26   90 1    
    54   27   28 am   BACKBONE|DICT|INTERRES
    55   27   91 1    
    56   28   29 2    
    57   28   30 1    
    58   30   31 1    
    59   30   32 1    
    60   30   92 1    
    61   31   93 1    
    62   31   94 1    
    63   31   95 1    
    64   32   33 am   BACKBONE|DICT|INTERRES
    65   32   96 1    
    66   33   34 2    
    67   33   35 1    
    68   35   36 1    
    69   35   37 1    
    70   35   97 1    
    71   36   98 1    
    72   36   99 1    
    73   36  100 1    
    74   37   38 am   BACKBONE|DICT|INTERRES
    75   37  101 1    
    76   38   39 2    
    77   38   40 1    
    78   40   41 1    
    79   40   42 1    
    80   40  102 1    
    81   41  103 1    
    82   41  104 1    
    83   41  105 1    
    84   42   43 am   BACKBONE|DICT|INTERRES
    85   42  106 1    
    86   43   44 2    
    87   43   45 1    
    88   45   46 1    
    89   45   49 1    
    90   45  107 1    
    91   46   47 1    
    92   46  108 1    
    93   46  109 1    
    94   47   48 1    
    95   48  110 1    
    96   48  111 1    
    97   49   50 am   BACKBONE|DICT|INTERRES
    98   49  112 1    
    99   50   51 2    
   100   50   52 1    
   101   52   53 1    
   102   52   54 1    
   103   52  113 1    
   104   53  114 1    
   105   53  115 1    
   106   53  116 1    
   107   54   55 am   BACKBONE|DICT|INTERRES
   108   54  117 1    
   109   55   56 2    
   110   55   57 1    
   111   57   58 1    
   112   57   59 1    
   113   57  118 1    
   114   58  119 1    
   115   58  120 1    
   116   58  121 1    
   117   59   60 am   BACKBONE|DICT|INTERRES
   118   59  122 1    
   119   60   61 2    
   120   60   62 1    
   121   62   63 1    
   122   62   64 1    
   123   62  123 1    
   124   63  124 1    
   125   63  125 1    
   126   63  126 1    
   127   64   65 am   BACKBONE|DICT|INTERRES
   128   64  127 1    
   129   65   66 2    
@<TRIPOS>SUBSTRUCTURE
     1 UNK         1 GROUP             0       ****    0 ROOT    
