@<TRIPOS>MOLECULE
3R135
127   129    1
SMALL
USER_CHARGES


@<TRIPOS>ATOM
      1 CA        -83.2607   22.8421  -70.7675 C.3       0 UNK        -0.1998 
      2 C         -83.3705   23.9858  -71.7648 C.2       0 UNK         0.4909 
      3 O         -84.3937   24.1150  -72.4388 O.2       0 UNK        -0.5240 
      4 N         -82.3285   24.8215  -71.8546 N.am      1 UNK        -0.4739 
      5 CA        -82.2319   25.9437  -72.7963 C.3       1 UNK         0.0864 
      6 C6        -81.1133   26.9399  -72.3983 C.3       11 UNK        -0.0881 
      7 S7        -81.3105   27.5923  -70.7031 S.3       11 UNK        -0.2682 
      8 C8        -79.5884   27.5477  -70.0807 C.3       11 UNK         0.0289 
      9 C9        -78.5932   28.4754  -70.7867 C.ar      11 UNK        -0.0687 
     10 C10       -78.9946   29.4664  -71.6924 C.ar      11 UNK        -0.0823 
     11 C11       -78.0529   30.2537  -72.3570 C.ar      11 UNK        -0.0830 
     12 C12       -76.6968   30.1010  -72.0648 C.ar      11 UNK        -0.1021 
     13 C13       -76.2760   29.1217  -71.1629 C.ar      11 UNK        -0.0753 
     14 C14       -77.2264   28.3146  -70.5276 C.ar      11 UNK        -0.0933 
     15 C15       -74.7896   28.9097  -70.9281 C.3       11 UNK         0.0166 
     16 S16       -74.0850   27.8940  -72.2609 S.3       11 UNK        -0.2615 
     17 C17       -72.2980   28.0954  -71.9770 C.3       11 UNK        -0.0865 
     18 CA        -71.6812   29.2064  -72.8661 C.3       10 UNK         0.0862 
     19 C         -70.2036   29.4813  -72.4548 C.2       10 UNK         0.5551 
     20 N         -69.2100   29.2753  -73.3115 N.am      10 UNK        -0.7319 
     21 O         -69.9545   29.9003  -71.3269 O.2       10 UNK        -0.5018 
     22 N         -71.8799   28.9405  -74.3016 N.am      10 UNK        -0.4509 
     23 C         -71.7861   29.8705  -75.2634 C.2       10 UNK         0.4899 
     24 O         -71.6470   31.0726  -75.0292 O.2       10 UNK        -0.4839 
     25 CA        -71.8272   29.3840  -76.7311 C.3       9 UNK         0.0222 
     26 CB        -71.1186   30.3569  -77.6966 C.3       9 UNK        -0.1966 
     27 N         -71.3157   28.0208  -76.9216 N.am      9 UNK        -0.4218 
     28 C         -70.1285   27.5288  -76.5298 C.2       9 UNK         0.5020 
     29 O         -69.2354   28.2209  -76.0373 O.2       9 UNK        -0.5274 
     30 CA        -69.9124   26.0050  -76.6690 C.3       8 UNK         0.0270 
     31 CB        -69.0252   25.4413  -75.5382 C.3       8 UNK        -0.1976 
     32 N         -71.1568   25.2276  -76.7764 N.am      8 UNK        -0.4313 
     33 C         -72.1791   25.1958  -75.9068 C.2       8 UNK         0.5041 
     34 O         -72.1995   25.8129  -74.8396 O.2       8 UNK        -0.5577 
     35 CA        -73.4133   24.3893  -76.3544 C.3       7 UNK         0.0284 
     36 CB        -73.9727   23.5466  -75.1951 C.3       7 UNK        -0.1958 
     37 N         -74.4901   25.2316  -76.8893 N.am      7 UNK        -0.4454 
     38 C         -74.3902   26.1948  -77.8187 C.2       7 UNK         0.5089 
     39 O         -73.3424   26.5061  -78.3859 O.2       7 UNK        -0.5125 
     40 CA        -75.6800   26.9526  -78.1809 C.3       6 UNK         0.0408 
     41 CB        -76.4010   26.2654  -79.3507 C.3       6 UNK        -0.1791 
     42 N         -76.6035   27.1035  -77.0537 N.am      6 UNK        -0.4762 
     43 C         -76.3610   27.8573  -75.9692 C.2       6 UNK         0.5007 
     44 O         -75.3312   28.5146  -75.8160 O.2       6 UNK        -0.5032 
     45 CA        -77.4507   27.8679  -74.8771 C.3       5 UNK         0.0783 
     46 C46       -78.5559   28.9211  -75.1721 C.3       11 UNK        -0.0857 
     47 S47       -77.9614   30.6524  -75.0974 S.3       11 UNK        -0.2512 
     48 C48       -78.4999   31.2144  -73.4468 C.3       11 UNK         0.0225 
     49 N         -78.0060   26.5181  -74.7096 N.am      5 UNK        -0.4615 
     50 C         -77.4094   25.5494  -73.9942 C.2       4 UNK         0.5053 
     51 O         -76.4398   25.7436  -73.2676 O.2       4 UNK        -0.5105 
     52 CA        -77.9415   24.1078  -74.1115 C.3       4 UNK         0.0263 
     53 CB        -78.6904   23.6774  -72.8399 C.3       4 UNK        -0.1981 
     54 N         -78.7819   23.8873  -75.2898 N.am      4 UNK        -0.4224 
     55 C         -78.3014   23.8169  -76.5406 C.2       3 UNK         0.4895 
     56 O         -77.1017   23.8729  -76.8078 O.2       3 UNK        -0.5091 
     57 CA        -79.3163   23.7260  -77.6957 C.3       3 UNK         0.0250 
     58 CB        -79.5415   22.2598  -78.0961 C.3       3 UNK        -0.1996 
     59 N         -80.6086   24.3555  -77.4080 N.am      3 UNK        -0.4254 
     60 C         -80.7865   25.6395  -77.0661 C.2       2 UNK         0.5004 
     61 O         -79.8658   26.4542  -76.9862 O.2       2 UNK        -0.5226 
     62 CA        -82.2114   26.0769  -76.6739 C.3       2 UNK         0.0269 
     63 CB        -83.3185   25.1113  -77.1555 C.3       2 UNK        -0.1926 
     64 N         -82.3339   26.3072  -75.2258 N.am      2 UNK        -0.4687 
     65 C         -82.0234   25.4450  -74.2438 C.2       1 UNK         0.5165 
     66 O         -81.5560   24.3198  -74.4454 O.2       1 UNK        -0.5079 
     67 H67       -84.0629   22.9061  -70.0328 H         1 UNK         0.0900 
     68 H68       -82.3103   22.8560  -70.2341 H         1 UNK         0.0900 
     69 H69       -83.3455   21.8861  -71.2835 H         1 UNK         0.0900 
     70 H70       -81.5190   24.6705  -71.2715 H         1 UNK         0.2959 
     71 H71       -83.1860   26.4756  -72.7699 H         1 UNK         0.1079 
     72 H72       -80.1283   26.4818  -72.4949 H         1 UNK         0.0837 
     73 H73       -81.1130   27.7932  -73.0780 H         1 UNK         0.0837 
     74 H74       -79.6049   27.8075  -69.0215 H         1 UNK         0.0685 
     75 H75       -79.2277   26.5195  -70.1400 H         1 UNK         0.0685 
     76 H76       -80.0399   29.6138  -71.9182 H         1 UNK         0.1434 
     77 H77       -75.9637   30.7003  -72.5881 H         1 UNK         0.1329 
     78 H78       -76.8980   27.5442  -69.8432 H         1 UNK         0.1335 
     79 H79       -74.6138   28.4251  -69.9665 H         1 UNK         0.0680 
     80 H80       -74.2808   29.8744  -70.8932 H         1 UNK         0.0680 
     81 H81       -71.8125   27.1389  -72.1806 H         1 UNK         0.1032 
     82 H82       -72.1313   28.2999  -70.9175 H         1 UNK         0.1032 
     83 H83       -72.2193   30.1285  -72.6375 H         1 UNK         0.0461 
     84 H84       -68.2651   29.4659  -73.0198 H         1 UNK         0.3453 
     85 H85       -69.3841   28.9343  -74.2525 H         1 UNK         0.3453 
     86 H86       -72.0141   27.9685  -74.5600 H         1 UNK         0.2984 
     87 H87       -72.8818   29.3499  -77.0078 H         1 UNK         0.0554 
     88 H88       -71.1789   30.0073  -78.7272 H         1 UNK         0.0847 
     89 H89       -70.0647   30.4779  -77.4439 H         1 UNK         0.0847 
     90 H90       -71.5771   31.3460  -77.6656 H         1 UNK         0.0847 
     91 H91       -71.9778   27.3695  -77.3375 H         1 UNK         0.3141 
     92 H92       -69.3810   25.8631  -77.6110 H         1 UNK         0.0743 
     93 H93       -69.4669   25.6137  -74.5559 H         1 UNK         0.0784 
     94 H94       -68.8692   24.3687  -75.6525 H         1 UNK         0.0784 
     95 H95       -68.0408   25.9111  -75.5382 H         1 UNK         0.0784 
     96 H96       -71.2756   24.7332  -77.6508 H         1 UNK         0.3213 
     97 H97       -73.1123   23.7040  -77.1490 H         1 UNK         0.0855 
     98 H98       -74.3556   24.1760  -74.3903 H         1 UNK         0.0814 
     99 H99       -73.1996   22.9065  -74.7682 H         1 UNK         0.0814 
    100 H100      -74.7832   22.8983  -75.5286 H         1 UNK         0.0814 
    101 H101      -75.4240   25.0143  -76.5583 H         1 UNK         0.3105 
    102 H102      -75.3915   27.9543  -78.5064 H         1 UNK         0.0547 
    103 H103      -75.7565   26.2216  -80.2297 H         1 UNK         0.0837 
    104 H104      -76.6838   25.2413  -79.1077 H         1 UNK         0.0837 
    105 H105      -77.3030   26.8060  -79.6377 H         1 UNK         0.0837 
    106 H106      -77.4849   26.6105  -77.1116 H         1 UNK         0.3020 
    107 H107      -76.9571   28.1448  -73.9439 H         1 UNK         0.1245 
    108 H108      -79.3825   28.8033  -74.4720 H         1 UNK         0.0781 
    109 H109      -78.9870   28.7607  -76.1612 H         1 UNK         0.0781 
    110 H110      -79.5848   31.3310  -73.4473 H         1 UNK         0.0836 
    111 H111      -78.0844   32.2042  -73.2525 H         1 UNK         0.0836 
    112 H112      -78.7833   26.2834  -75.3174 H         1 UNK         0.3022 
    113 H113      -77.0664   23.4604  -74.2026 H         1 UNK         0.0747 
    114 H114      -78.9819   22.6282  -72.8893 H         1 UNK         0.0793 
    115 H115      -78.0607   23.7974  -71.9572 H         1 UNK         0.0793 
    116 H116      -79.5906   24.2643  -72.6771 H         1 UNK         0.0793 
    117 H117      -79.7877   23.8681  -75.1387 H         1 UNK         0.3047 
    118 H118      -78.8835   24.2509  -78.5493 H         1 UNK         0.0822 
    119 H119      -80.1805   22.1812  -78.9759 H         1 UNK         0.0807 
    120 H120      -80.0043   21.6878  -77.2908 H         1 UNK         0.0807 
    121 H121      -78.5962   21.7727  -78.3405 H         1 UNK         0.0807 
    122 H122      -81.4163   23.7495  -77.4039 H         1 UNK         0.2946 
    123 H123      -82.3736   27.0381  -77.1650 H         1 UNK         0.1144 
    124 H124      -83.2528   24.9383  -78.2308 H         1 UNK         0.0793 
    125 H125      -84.3069   25.5287  -76.9626 H         1 UNK         0.0793 
    126 H126      -83.2733   24.1424  -76.6569 H         1 UNK         0.0793 
    127 H127      -82.6760   27.2225  -74.9666 H         1 UNK         0.2896 
@<TRIPOS>BOND
     1    1    2 1    
     2    1   67 1    
     3    1   68 1    
     4    1   69 1    
     5    2    3 2    
     6    2    4 am   BACKBONE|DICT|INTERRES
     7    4    5 1    
     8    4   70 1    
     9    5    6 1    
    10    5   65 1    
    11    5   71 1    
    12    6    7 1    
    13    6   72 1    
    14    6   73 1    
    15    7    8 1    
    16    8    9 1    
    17    8   74 1    
    18    8   75 1    
    19    9   10 ar   
    20    9   14 ar   
    21   10   11 ar   
    22   10   76 1    
    23   11   12 ar   
    24   11   48 1    
    25   12   13 ar   
    26   12   77 1    
    27   13   14 ar   
    28   13   15 1    
    29   14   78 1    
    30   15   16 1    
    31   15   79 1    
    32   15   80 1    
    33   16   17 1    
    34   17   18 1    
    35   17   81 1    
    36   17   82 1    
    37   18   19 1    
    38   18   22 1    
    39   18   83 1    
    40   19   20 am   BACKBONE|DICT|INTERRES
    41   19   21 2    
    42   20   84 1    
    43   20   85 1    
    44   22   23 am   BACKBONE|DICT|INTERRES
    45   22   86 1    
    46   23   24 2    
    47   23   25 1    
    48   25   26 1    
    49   25   27 1    
    50   25   87 1    
    51   26   88 1    
    52   26   89 1    
    53   26   90 1    
    54   27   28 am   BACKBONE|DICT|INTERRES
    55   27   91 1    
    56   28   29 2    
    57   28   30 1    
    58   30   31 1    
    59   30   32 1    
    60   30   92 1    
    61   31   93 1    
    62   31   94 1    
    63   31   95 1    
    64   32   33 am   BACKBONE|DICT|INTERRES
    65   32   96 1    
    66   33   34 2    
    67   33   35 1    
    68   35   36 1    
    69   35   37 1    
    70   35   97 1    
    71   36   98 1    
    72   36   99 1    
    73   36  100 1    
    74   37   38 am   BACKBONE|DICT|INTERRES
    75   37  101 1    
    76   38   39 2    
    77   38   40 1    
    78   40   41 1    
    79   40   42 1    
    80   40  102 1    
    81   41  103 1    
    82   41  104 1    
    83   41  105 1    
    84   42   43 am   BACKBONE|DICT|INTERRES
    85   42  106 1    
    86   43   44 2    
    87   43   45 1    
    88   45   46 1    
    89   45   49 1    
    90   45  107 1    
    91   46   47 1    
    92   46  108 1    
    93   46  109 1    
    94   47   48 1    
    95   48  110 1    
    96   48  111 1    
    97   49   50 am   BACKBONE|DICT|INTERRES
    98   49  112 1    
    99   50   51 2    
   100   50   52 1    
   101   52   53 1    
   102   52   54 1    
   103   52  113 1    
   104   53  114 1    
   105   53  115 1    
   106   53  116 1    
   107   54   55 am   BACKBONE|DICT|INTERRES
   108   54  117 1    
   109   55   56 2    
   110   55   57 1    
   111   57   58 1    
   112   57   59 1    
   113   57  118 1    
   114   58  119 1    
   115   58  120 1    
   116   58  121 1    
   117   59   60 am   BACKBONE|DICT|INTERRES
   118   59  122 1    
   119   60   61 2    
   120   60   62 1    
   121   62   63 1    
   122   62   64 1    
   123   62  123 1    
   124   63  124 1    
   125   63  125 1    
   126   63  126 1    
   127   64   65 am   BACKBONE|DICT|INTERRES
   128   64  127 1    
   129   65   66 2    
@<TRIPOS>SUBSTRUCTURE
     1 UNK         1 GROUP             0       ****    0 ROOT    
