@<TRIPOS>MOLECULE
3R135
127   129    1
SMALL
USER_CHARGES


@<TRIPOS>ATOM
      1 CA        -81.9637   24.8357  -68.0768 C.3       0 UNK        -0.1998 
      2 C         -81.4919   25.2732  -69.4551 C.2       0 UNK         0.4909 
      3 O         -80.4501   24.8065  -69.9171 O.2       0 UNK        -0.5240 
      4 N         -82.2606   26.1521  -70.1144 N.am      1 UNK        -0.4739 
      5 CA        -82.0327   26.7596  -71.4381 C.3       1 UNK         0.0864 
      6 C6        -80.7100   27.5636  -71.5507 C.3       11 UNK        -0.0881 
      7 S7        -80.6571   28.9950  -70.4137 S.3       11 UNK        -0.2682 
      8 C8        -80.9328   30.4112  -71.5325 C.3       11 UNK         0.0289 
      9 C9        -79.7470   30.6417  -72.4591 C.ar      11 UNK        -0.0687 
     10 C10       -79.7744   30.1476  -73.7657 C.ar      11 UNK        -0.0823 
     11 C11       -78.6516   30.2577  -74.5885 C.ar      11 UNK        -0.0830 
     12 C12       -77.5283   30.9507  -74.1326 C.ar      11 UNK        -0.1021 
     13 C13       -77.4891   31.4563  -72.8308 C.ar      11 UNK        -0.0753 
     14 C14       -78.6041   31.3048  -71.9989 C.ar      11 UNK        -0.0933 
     15 C15       -76.2232   32.1207  -72.3097 C.3       11 UNK         0.0166 
     16 S16       -75.2206   30.9707  -71.3103 S.3       11 UNK        -0.2615 
     17 C17       -74.5501   29.8201  -72.5640 C.3       11 UNK        -0.0865 
     18 CA        -73.0569   30.0913  -72.8802 C.3       10 UNK         0.0862 
     19 C         -72.1226   29.5033  -71.7867 C.2       10 UNK         0.5551 
     20 N         -71.5557   30.3412  -70.9296 N.am      10 UNK        -0.7319 
     21 O         -71.9421   28.2910  -71.6914 O.2       10 UNK        -0.5018 
     22 N         -72.7088   29.5935  -74.2175 N.am      10 UNK        -0.4509 
     23 C         -71.5773   29.8856  -74.8717 C.2       10 UNK         0.4899 
     24 O         -70.7415   30.6994  -74.4746 O.2       10 UNK        -0.4839 
     25 CA        -71.3567   29.1235  -76.1910 C.3       9 UNK         0.0222 
     26 CB        -70.0017   29.4306  -76.8633 C.3       9 UNK        -0.1966 
     27 N         -71.5521   27.6812  -76.0130 N.am      9 UNK        -0.4218 
     28 C         -70.8437   26.8397  -75.2433 C.2       9 UNK         0.5020 
     29 O         -69.8295   27.1534  -74.6190 O.2       9 UNK        -0.5274 
     30 CA        -71.3619   25.3924  -75.1429 C.3       8 UNK         0.0270 
     31 CB        -72.2132   25.2229  -73.8738 C.3       8 UNK        -0.1976 
     32 N         -72.1522   24.9765  -76.3043 N.am      8 UNK        -0.4313 
     33 C         -71.6641   24.7776  -77.5368 C.2       8 UNK         0.5041 
     34 O         -70.4674   24.8359  -77.8214 O.2       8 UNK        -0.5577 
     35 CA        -72.6941   24.5051  -78.6442 C.3       7 UNK         0.0284 
     36 CB        -73.1142   23.0259  -78.6571 C.3       7 UNK        -0.1958 
     37 N         -73.8768   25.3585  -78.5014 N.am      7 UNK        -0.4454 
     38 C         -73.9082   26.6661  -78.7966 C.2       7 UNK         0.5089 
     39 O         -72.9592   27.2835  -79.2784 O.2       7 UNK        -0.5125 
     40 CA        -75.2099   27.4203  -78.4809 C.3       6 UNK         0.0408 
     41 CB        -76.1752   27.3568  -79.6742 C.3       6 UNK        -0.1791 
     42 N         -75.8835   26.9050  -77.2897 N.am      6 UNK        -0.4762 
     43 C         -75.4815   27.1183  -76.0280 C.2       6 UNK         0.5007 
     44 O         -74.4955   27.7913  -75.7233 O.2       6 UNK        -0.5032 
     45 CA        -76.3062   26.4367  -74.9158 C.3       5 UNK         0.0783 
     46 C46       -77.4575   27.3503  -74.4317 C.3       11 UNK        -0.0857 
     47 S47       -78.7460   27.7184  -75.6923 S.3       11 UNK        -0.2512 
     48 C48       -78.6067   29.5262  -75.9214 C.3       11 UNK         0.0225 
     49 N         -76.7894   25.0986  -75.2711 N.am      5 UNK        -0.4615 
     50 C         -76.0337   24.0809  -75.7111 C.2       4 UNK         0.5053 
     51 O         -74.8087   24.1447  -75.8101 O.2       4 UNK        -0.5105 
     52 CA        -76.7429   22.7860  -76.1562 C.3       4 UNK         0.0263 
     53 CB        -76.5208   21.6739  -75.1193 C.3       4 UNK        -0.1981 
     54 N         -78.1806   22.9406  -76.3923 N.am      4 UNK        -0.4224 
     55 C         -78.7414   23.7550  -77.2979 C.2       3 UNK         0.4895 
     56 O         -78.0965   24.3821  -78.1402 O.2       3 UNK        -0.5091 
     57 CA        -80.2699   23.9465  -77.2247 C.3       3 UNK         0.0250 
     58 CB        -80.9559   23.1959  -78.3779 C.3       3 UNK        -0.1996 
     59 N         -80.9125   23.5645  -75.9551 N.am      3 UNK        -0.4254 
     60 C         -80.6135   24.0427  -74.7372 C.2       2 UNK         0.5004 
     61 O         -79.6495   24.7733  -74.5031 O.2       2 UNK        -0.5226 
     62 CA        -81.5068   23.5756  -73.5752 C.3       2 UNK         0.0269 
     63 CB        -80.9686   22.2642  -72.9803 C.3       2 UNK        -0.1926 
     64 N         -81.5753   24.5826  -72.5136 N.am      2 UNK        -0.4687 
     65 C         -82.1825   25.7710  -72.6163 C.2       1 UNK         0.5165 
     66 O         -82.8604   26.1002  -73.5914 O.2       1 UNK        -0.5079 
     67 H67       -81.2108   25.0819  -67.3285 H         1 UNK         0.0900 
     68 H68       -82.8968   25.3208  -67.7908 H         1 UNK         0.0900 
     69 H69       -82.1221   23.7577  -68.0594 H         1 UNK         0.0900 
     70 H70       -83.1126   26.4602  -69.6661 H         1 UNK         0.2959 
     71 H71       -82.8482   27.4745  -71.5629 H         1 UNK         0.1079 
     72 H72       -79.8490   26.9277  -71.3407 H         1 UNK         0.0837 
     73 H73       -80.5645   27.9055  -72.5738 H         1 UNK         0.0837 
     74 H74       -81.1031   31.3062  -70.9324 H         1 UNK         0.0685 
     75 H75       -81.8473   30.2491  -72.1053 H         1 UNK         0.0685 
     76 H76       -80.6422   29.6099  -74.1228 H         1 UNK         0.1434 
     77 H77       -76.6600   31.0417  -74.7708 H         1 UNK         0.1329 
     78 H78       -78.5693   31.6721  -70.9823 H         1 UNK         0.1335 
     79 H79       -76.4919   32.9803  -71.6940 H         1 UNK         0.0680 
     80 H80       -75.6205   32.5101  -73.1320 H         1 UNK         0.0680 
     81 H81       -75.1389   29.9079  -73.4743 H         1 UNK         0.1032 
     82 H82       -74.7034   28.7938  -72.2243 H         1 UNK         0.1032 
     83 H83       -72.9131   31.1736  -72.9145 H         1 UNK         0.0461 
     84 H84       -70.9583   29.9743  -70.2056 H         1 UNK         0.3453 
     85 H85       -71.7159   31.3344  -70.9934 H         1 UNK         0.3453 
     86 H86       -73.3326   28.9042  -74.6268 H         1 UNK         0.2984 
     87 H87       -72.1426   29.4529  -76.8724 H         1 UNK         0.0554 
     88 H88       -69.9175   30.4918  -77.1002 H         1 UNK         0.0847 
     89 H89       -69.8904   28.8798  -77.7974 H         1 UNK         0.0847 
     90 H90       -69.1589   29.1754  -76.2205 H         1 UNK         0.0847 
     91 H91       -72.4016   27.3156  -76.4230 H         1 UNK         0.3141 
     92 H92       -70.4947   24.7330  -75.0690 H         1 UNK         0.0743 
     93 H93       -71.6432   25.4899  -72.9826 H         1 UNK         0.0784 
     94 H94       -73.0977   25.8607  -73.8950 H         1 UNK         0.0784 
     95 H95       -72.5458   24.1919  -73.7516 H         1 UNK         0.0784 
     96 H96       -73.1464   24.8142  -76.1476 H         1 UNK         0.3213 
     97 H97       -72.2213   24.7304  -79.6029 H         1 UNK         0.0855 
     98 H98       -73.5831   22.7239  -77.7203 H         1 UNK         0.0814 
     99 H99       -72.2485   22.3796  -78.8082 H         1 UNK         0.0814 
    100 H100      -73.8159   22.8198  -79.4654 H         1 UNK         0.0814 
    101 H101      -74.6896   24.9465  -78.0656 H         1 UNK         0.3105 
    102 H102      -74.9548   28.4677  -78.3048 H         1 UNK         0.0547 
    103 H103      -76.4908   26.3342  -79.8859 H         1 UNK         0.0837 
    104 H104      -75.7059   27.7483  -80.5778 H         1 UNK         0.0837 
    105 H105      -77.0703   27.9516  -79.4910 H         1 UNK         0.0837 
    106 H106      -76.7099   26.3383  -77.4363 H         1 UNK         0.3020 
    107 H107      -75.6233   26.2961  -74.0755 H         1 UNK         0.1245 
    108 H108      -77.0363   28.2700  -74.0293 H         1 UNK         0.0781 
    109 H109      -77.9608   26.8801  -73.5853 H         1 UNK         0.0781 
    110 H110      -79.4232   29.8729  -76.5560 H         1 UNK         0.0836 
    111 H111      -77.6815   29.7428  -76.4581 H         1 UNK         0.0836 
    112 H112      -77.7933   24.9622  -75.1819 H         1 UNK         0.3022 
    113 H113      -76.2846   22.4767  -77.0977 H         1 UNK         0.0747 
    114 H114      -76.9772   21.9205  -74.1597 H         1 UNK         0.0793 
    115 H115      -76.9380   20.7253  -75.4577 H         1 UNK         0.0793 
    116 H116      -75.4563   21.5120  -74.9420 H         1 UNK         0.0793 
    117 H117      -78.7956   22.4826  -75.7363 H         1 UNK         0.3047 
    118 H118      -80.4506   25.0152  -77.3590 H         1 UNK         0.0822 
    119 H119      -82.0210   23.4236  -78.4239 H         1 UNK         0.0807 
    120 H120      -80.8454   22.1154  -78.2776 H         1 UNK         0.0807 
    121 H121      -80.5266   23.4790  -79.3403 H         1 UNK         0.0807 
    122 H122      -81.7005   22.9378  -76.0376 H         1 UNK         0.2946 
    123 H123      -82.5181   23.4090  -73.9532 H         1 UNK         0.1144 
    124 H124      -81.6035   21.9073  -72.1690 H         1 UNK         0.0793 
    125 H125      -79.9589   22.3866  -72.5852 H         1 UNK         0.0793 
    126 H126      -80.9324   21.4751  -73.7325 H         1 UNK         0.0793 
    127 H127      -81.0175   24.4221  -71.6788 H         1 UNK         0.2896 
@<TRIPOS>BOND
     1    1    2 1    
     2    1   67 1    
     3    1   68 1    
     4    1   69 1    
     5    2    3 2    
     6    2    4 am   BACKBONE|DICT|INTERRES
     7    4    5 1    
     8    4   70 1    
     9    5    6 1    
    10    5   65 1    
    11    5   71 1    
    12    6    7 1    
    13    6   72 1    
    14    6   73 1    
    15    7    8 1    
    16    8    9 1    
    17    8   74 1    
    18    8   75 1    
    19    9   10 ar   
    20    9   14 ar   
    21   10   11 ar   
    22   10   76 1    
    23   11   12 ar   
    24   11   48 1    
    25   12   13 ar   
    26   12   77 1    
    27   13   14 ar   
    28   13   15 1    
    29   14   78 1    
    30   15   16 1    
    31   15   79 1    
    32   15   80 1    
    33   16   17 1    
    34   17   18 1    
    35   17   81 1    
    36   17   82 1    
    37   18   19 1    
    38   18   22 1    
    39   18   83 1    
    40   19   20 am   BACKBONE|DICT|INTERRES
    41   19   21 2    
    42   20   84 1    
    43   20   85 1    
    44   22   23 am   BACKBONE|DICT|INTERRES
    45   22   86 1    
    46   23   24 2    
    47   23   25 1    
    48   25   26 1    
    49   25   27 1    
    50   25   87 1    
    51   26   88 1    
    52   26   89 1    
    53   26   90 1    
    54   27   28 am   BACKBONE|DICT|INTERRES
    55   27   91 1    
    56   28   29 2    
    57   28   30 1    
    58   30   31 1    
    59   30   32 1    
    60   30   92 1    
    61   31   93 1    
    62   31   94 1    
    63   31   95 1    
    64   32   33 am   BACKBONE|DICT|INTERRES
    65   32   96 1    
    66   33   34 2    
    67   33   35 1    
    68   35   36 1    
    69   35   37 1    
    70   35   97 1    
    71   36   98 1    
    72   36   99 1    
    73   36  100 1    
    74   37   38 am   BACKBONE|DICT|INTERRES
    75   37  101 1    
    76   38   39 2    
    77   38   40 1    
    78   40   41 1    
    79   40   42 1    
    80   40  102 1    
    81   41  103 1    
    82   41  104 1    
    83   41  105 1    
    84   42   43 am   BACKBONE|DICT|INTERRES
    85   42  106 1    
    86   43   44 2    
    87   43   45 1    
    88   45   46 1    
    89   45   49 1    
    90   45  107 1    
    91   46   47 1    
    92   46  108 1    
    93   46  109 1    
    94   47   48 1    
    95   48  110 1    
    96   48  111 1    
    97   49   50 am   BACKBONE|DICT|INTERRES
    98   49  112 1    
    99   50   51 2    
   100   50   52 1    
   101   52   53 1    
   102   52   54 1    
   103   52  113 1    
   104   53  114 1    
   105   53  115 1    
   106   53  116 1    
   107   54   55 am   BACKBONE|DICT|INTERRES
   108   54  117 1    
   109   55   56 2    
   110   55   57 1    
   111   57   58 1    
   112   57   59 1    
   113   57  118 1    
   114   58  119 1    
   115   58  120 1    
   116   58  121 1    
   117   59   60 am   BACKBONE|DICT|INTERRES
   118   59  122 1    
   119   60   61 2    
   120   60   62 1    
   121   62   63 1    
   122   62   64 1    
   123   62  123 1    
   124   63  124 1    
   125   63  125 1    
   126   63  126 1    
   127   64   65 am   BACKBONE|DICT|INTERRES
   128   64  127 1    
   129   65   66 2    
@<TRIPOS>SUBSTRUCTURE
     1 UNK         1 GROUP             0       ****    0 ROOT    
