@<TRIPOS>MOLECULE
3R135
127   129    1
SMALL
USER_CHARGES


@<TRIPOS>ATOM
      1 CA        -76.4364   27.2319  -72.0077 C.3       0 UNK        -0.1998 
      2 C         -77.5659   26.5952  -71.2146 C.2       0 UNK         0.4909 
      3 O         -77.3188   25.7323  -70.3727 O.2       0 UNK        -0.5240 
      4 N         -78.8083   27.0181  -71.4775 N.am      1 UNK        -0.4739 
      5 CA        -80.0202   26.5939  -70.7626 C.3       1 UNK         0.0864 
      6 C6        -81.1324   27.6702  -70.8500 C.3       11 UNK        -0.0881 
      7 S7        -80.6240   29.2488  -70.0872 S.3       11 UNK        -0.2682 
      8 C8        -81.0097   30.4501  -71.3979 C.3       11 UNK         0.0289 
      9 C9        -79.9605   30.4650  -72.5003 C.ar      11 UNK        -0.0687 
     10 C10       -80.2195   29.8624  -73.7355 C.ar      11 UNK        -0.0823 
     11 C11       -79.2784   29.9290  -74.7683 C.ar      11 UNK        -0.0830 
     12 C12       -78.0787   30.6165  -74.5599 C.ar      11 UNK        -0.1021 
     13 C13       -77.8054   31.2217  -73.3290 C.ar      11 UNK        -0.0753 
     14 C14       -78.7486   31.1343  -72.3009 C.ar      11 UNK        -0.0933 
     15 C15       -76.5255   32.0260  -73.1262 C.3       11 UNK         0.0166 
     16 S16       -75.1918   31.0552  -72.3515 S.3       11 UNK        -0.2615 
     17 C17       -74.6255   30.0165  -73.7480 C.3       11 UNK        -0.0865 
     18 CA        -73.2239   30.2689  -74.4038 C.3       10 UNK         0.0862 
     19 C         -72.5218   31.6231  -74.0816 C.2       10 UNK         0.5551 
     20 N         -73.1318   32.7383  -74.4609 N.am      10 UNK        -0.7319 
     21 O         -71.4207   31.6848  -73.5368 O.2       10 UNK        -0.5018 
     22 N         -72.3412   29.0962  -74.2963 N.am      10 UNK        -0.4509 
     23 C         -71.8657   28.5505  -73.1690 C.2       10 UNK         0.4899 
     24 O         -72.1308   28.9520  -72.0345 O.2       10 UNK        -0.4839 
     25 CA        -70.9371   27.3355  -73.3630 C.3       9 UNK         0.0222 
     26 CB        -70.4666   26.7120  -72.0305 C.3       9 UNK        -0.1966 
     27 N         -71.5208   26.3128  -74.2416 N.am      9 UNK        -0.4218 
     28 C         -72.6471   25.6092  -74.0526 C.2       9 UNK         0.5020 
     29 O         -73.3836   25.7350  -73.0729 O.2       9 UNK        -0.5274 
     30 CA        -72.9863   24.5708  -75.1435 C.3       8 UNK         0.0270 
     31 CB        -74.1932   23.6885  -74.7700 C.3       8 UNK        -0.1976 
     32 N         -73.2347   25.1777  -76.4539 N.am      8 UNK        -0.4313 
     33 C         -72.3100   25.7070  -77.2666 C.2       8 UNK         0.5041 
     34 O         -71.1113   25.7704  -76.9865 O.2       8 UNK        -0.5577 
     35 CA        -72.8024   26.2699  -78.6075 C.3       7 UNK         0.0284 
     36 CB        -72.9601   25.1438  -79.6429 C.3       7 UNK        -0.1958 
     37 N         -74.0748   26.9752  -78.4533 N.am      7 UNK        -0.4454 
     38 C         -74.1882   28.2705  -78.1297 C.2       7 UNK         0.5089 
     39 O         -73.2286   29.0280  -77.9828 O.2       7 UNK        -0.5125 
     40 CA        -75.6143   28.8176  -77.9261 C.3       6 UNK         0.0408 
     41 CB        -76.1675   29.3875  -79.2410 C.3       6 UNK        -0.1791 
     42 N         -76.5505   27.8226  -77.3956 N.am      6 UNK        -0.4762 
     43 C         -76.4628   27.2910  -76.1682 C.2       6 UNK         0.5007 
     44 O         -75.5909   27.5924  -75.3592 O.2       6 UNK        -0.5032 
     45 CA        -77.4817   26.2044  -75.7862 C.3       5 UNK         0.0783 
     46 C46       -78.6954   26.7889  -75.0231 C.3       11 UNK        -0.0857 
     47 S47       -80.0061   27.5294  -76.0586 S.3       11 UNK        -0.2512 
     48 C48       -79.5627   29.3003  -76.1285 C.3       11 UNK         0.0225 
     49 N         -77.8676   25.3066  -76.8790 N.am      5 UNK        -0.4615 
     50 C         -77.0288   24.5907  -77.6376 C.2       4 UNK         0.5053 
     51 O         -75.8041   24.7285  -77.6265 O.2       4 UNK        -0.5105 
     52 CA        -77.6710   23.4878  -78.4949 C.3       4 UNK         0.0263 
     53 CB        -76.7040   22.9313  -79.5566 C.3       4 UNK        -0.1981 
     54 N         -78.0998   22.3979  -77.6170 N.am      4 UNK        -0.4224 
     55 C         -79.2063   22.4137  -76.8615 C.2       3 UNK         0.4895 
     56 O         -80.0840   23.2748  -76.9657 O.2       3 UNK        -0.5091 
     57 CA        -79.3570   21.3057  -75.7985 C.3       3 UNK         0.0250 
     58 CB        -78.0583   20.5097  -75.5263 C.3       3 UNK        -0.1996 
     59 N         -79.9070   21.8258  -74.5389 N.am      3 UNK        -0.4254 
     60 C         -79.3912   22.7935  -73.7642 C.2       2 UNK         0.5004 
     61 O         -78.3360   23.3925  -73.9922 O.2       2 UNK        -0.5226 
     62 CA        -80.1812   23.1193  -72.4921 C.3       2 UNK         0.0269 
     63 CB        -79.8938   22.0756  -71.3941 C.3       2 UNK        -0.1926 
     64 N         -79.8216   24.4557  -72.0193 N.am      2 UNK        -0.4687 
     65 C         -80.5522   25.2002  -71.1799 C.2       1 UNK         0.5165 
     66 O         -81.6318   24.8162  -70.7256 O.2       1 UNK        -0.5079 
     67 H67       -76.0351   26.5239  -72.7325 H         1 UNK         0.0900 
     68 H68       -76.7700   28.1209  -72.5431 H         1 UNK         0.0900 
     69 H69       -75.6258   27.5288  -71.3426 H         1 UNK         0.0900 
     70 H70       -78.9484   27.7579  -72.1509 H         1 UNK         0.2959 
     71 H71       -79.7576   26.4889  -69.7073 H         1 UNK         0.1079 
     72 H72       -82.0335   27.3455  -70.3260 H         1 UNK         0.0837 
     73 H73       -81.4284   27.8274  -71.8884 H         1 UNK         0.0837 
     74 H74       -81.0691   31.4433  -70.9502 H         1 UNK         0.0685 
     75 H75       -82.0016   30.2452  -71.8041 H         1 UNK         0.0685 
     76 H76       -81.1592   29.3535  -73.9024 H         1 UNK         0.1434 
     77 H77       -77.3658   30.6988  -75.3682 H         1 UNK         0.1329 
     78 H78       -78.5506   31.6106  -71.3501 H         1 UNK         0.1335 
     79 H79       -76.1776   32.4352  -74.0755 H         1 UNK         0.0680 
     80 H80       -76.7373   32.8872  -72.4908 H         1 UNK         0.0680 
     81 H81       -75.3734   30.0689  -74.5349 H         1 UNK         0.1032 
     82 H82       -74.6883   28.9867  -73.3978 H         1 UNK         0.1032 
     83 H83       -73.3994   30.3233  -75.4792 H         1 UNK         0.0461 
     84 H84       -72.6897   33.6245  -74.2738 H         1 UNK         0.3453 
     85 H85       -74.0252   32.7117  -74.9240 H         1 UNK         0.3453 
     86 H86       -72.0529   28.6964  -75.1774 H         1 UNK         0.2984 
     87 H87       -70.0501   27.7086  -73.8779 H         1 UNK         0.0554 
     88 H88       -69.9377   27.4466  -71.4218 H         1 UNK         0.0847 
     89 H89       -69.7828   25.8805  -72.1999 H         1 UNK         0.0847 
     90 H90       -71.3039   26.3428  -71.4367 H         1 UNK         0.0847 
     91 H91       -71.0441   26.1555  -75.1284 H         1 UNK         0.3141 
     92 H92       -72.1194   23.9131  -75.2365 H         1 UNK         0.0743 
     93 H93       -74.3893   22.9359  -75.5341 H         1 UNK         0.0784 
     94 H94       -74.0162   23.1604  -73.8322 H         1 UNK         0.0784 
     95 H95       -75.1001   24.2787  -74.6432 H         1 UNK         0.0784 
     96 H96       -74.1954   25.1432  -76.7877 H         1 UNK         0.3213 
     97 H97       -72.0450   26.9642  -78.9787 H         1 UNK         0.0855 
     98 H98       -73.6987   24.4035  -79.3327 H         1 UNK         0.0814 
     99 H99       -72.0159   24.6182  -79.7918 H         1 UNK         0.0814 
    100 H100      -73.2677   25.5373  -80.6118 H         1 UNK         0.0814 
    101 H101      -74.9133   26.4064  -78.4755 H         1 UNK         0.3105 
    102 H102      -75.5510   29.6346  -77.2039 H         1 UNK         0.0547 
    103 H103      -76.2778   28.6147  -80.0027 H         1 UNK         0.0837 
    104 H104      -75.5006   30.1501  -79.6457 H         1 UNK         0.0837 
    105 H105      -77.1403   29.8567  -79.0934 H         1 UNK         0.0837 
    106 H106      -77.2894   27.5032  -78.0059 H         1 UNK         0.3020 
    107 H107      -76.9553   25.5681  -75.0725 H         1 UNK         0.1245 
    108 H108      -78.3691   27.4994  -74.2653 H         1 UNK         0.0781 
    109 H109      -79.1729   25.9836  -74.4644 H         1 UNK         0.0781 
    110 H110      -78.7093   29.4219  -76.7955 H         1 UNK         0.0836 
    111 H111      -80.3847   29.8431  -76.5966 H         1 UNK         0.0836 
    112 H112      -78.8541   25.0793  -76.9293 H         1 UNK         0.3022 
    113 H113      -78.5364   23.9114  -79.0096 H         1 UNK         0.0747 
    114 H114      -75.8217   22.4748  -79.1054 H         1 UNK         0.0793 
    115 H115      -77.1895   22.1788  -80.1782 H         1 UNK         0.0793 
    116 H116      -76.3563   23.7246  -80.2200 H         1 UNK         0.0793 
    117 H117      -77.4216   21.6693  -77.4473 H         1 UNK         0.3047 
    118 H118      -80.0978   20.6086  -76.1933 H         1 UNK         0.0822 
    119 H119      -78.2146   19.7628  -74.7474 H         1 UNK         0.0807 
    120 H120      -77.2424   21.1566  -75.1994 H         1 UNK         0.0807 
    121 H121      -77.7252   19.9701  -76.4136 H         1 UNK         0.0807 
    122 H122      -80.7906   21.4209  -74.2623 H         1 UNK         0.2946 
    123 H123      -81.2454   23.1082  -72.7397 H         1 UNK         0.1144 
    124 H124      -80.4898   22.2590  -70.5001 H         1 UNK         0.0793 
    125 H125      -78.8428   22.0828  -71.1019 H         1 UNK         0.0793 
    126 H126      -80.1312   21.0670  -71.7346 H         1 UNK         0.0793 
    127 H127      -78.9425   24.8103  -72.3735 H         1 UNK         0.2896 
@<TRIPOS>BOND
     1    1    2 1    
     2    1   67 1    
     3    1   68 1    
     4    1   69 1    
     5    2    3 2    
     6    2    4 am   BACKBONE|DICT|INTERRES
     7    4    5 1    
     8    4   70 1    
     9    5    6 1    
    10    5   65 1    
    11    5   71 1    
    12    6    7 1    
    13    6   72 1    
    14    6   73 1    
    15    7    8 1    
    16    8    9 1    
    17    8   74 1    
    18    8   75 1    
    19    9   10 ar   
    20    9   14 ar   
    21   10   11 ar   
    22   10   76 1    
    23   11   12 ar   
    24   11   48 1    
    25   12   13 ar   
    26   12   77 1    
    27   13   14 ar   
    28   13   15 1    
    29   14   78 1    
    30   15   16 1    
    31   15   79 1    
    32   15   80 1    
    33   16   17 1    
    34   17   18 1    
    35   17   81 1    
    36   17   82 1    
    37   18   19 1    
    38   18   22 1    
    39   18   83 1    
    40   19   20 am   BACKBONE|DICT|INTERRES
    41   19   21 2    
    42   20   84 1    
    43   20   85 1    
    44   22   23 am   BACKBONE|DICT|INTERRES
    45   22   86 1    
    46   23   24 2    
    47   23   25 1    
    48   25   26 1    
    49   25   27 1    
    50   25   87 1    
    51   26   88 1    
    52   26   89 1    
    53   26   90 1    
    54   27   28 am   BACKBONE|DICT|INTERRES
    55   27   91 1    
    56   28   29 2    
    57   28   30 1    
    58   30   31 1    
    59   30   32 1    
    60   30   92 1    
    61   31   93 1    
    62   31   94 1    
    63   31   95 1    
    64   32   33 am   BACKBONE|DICT|INTERRES
    65   32   96 1    
    66   33   34 2    
    67   33   35 1    
    68   35   36 1    
    69   35   37 1    
    70   35   97 1    
    71   36   98 1    
    72   36   99 1    
    73   36  100 1    
    74   37   38 am   BACKBONE|DICT|INTERRES
    75   37  101 1    
    76   38   39 2    
    77   38   40 1    
    78   40   41 1    
    79   40   42 1    
    80   40  102 1    
    81   41  103 1    
    82   41  104 1    
    83   41  105 1    
    84   42   43 am   BACKBONE|DICT|INTERRES
    85   42  106 1    
    86   43   44 2    
    87   43   45 1    
    88   45   46 1    
    89   45   49 1    
    90   45  107 1    
    91   46   47 1    
    92   46  108 1    
    93   46  109 1    
    94   47   48 1    
    95   48  110 1    
    96   48  111 1    
    97   49   50 am   BACKBONE|DICT|INTERRES
    98   49  112 1    
    99   50   51 2    
   100   50   52 1    
   101   52   53 1    
   102   52   54 1    
   103   52  113 1    
   104   53  114 1    
   105   53  115 1    
   106   53  116 1    
   107   54   55 am   BACKBONE|DICT|INTERRES
   108   54  117 1    
   109   55   56 2    
   110   55   57 1    
   111   57   58 1    
   112   57   59 1    
   113   57  118 1    
   114   58  119 1    
   115   58  120 1    
   116   58  121 1    
   117   59   60 am   BACKBONE|DICT|INTERRES
   118   59  122 1    
   119   60   61 2    
   120   60   62 1    
   121   62   63 1    
   122   62   64 1    
   123   62  123 1    
   124   63  124 1    
   125   63  125 1    
   126   63  126 1    
   127   64   65 am   BACKBONE|DICT|INTERRES
   128   64  127 1    
   129   65   66 2    
@<TRIPOS>SUBSTRUCTURE
     1 UNK         1 GROUP             0       ****    0 ROOT    
