@<TRIPOS>MOLECULE
3R135
127   129    1
SMALL
USER_CHARGES


@<TRIPOS>ATOM
      1 CA        -82.6317   24.0410  -68.6816 C.3       0 UNK        -0.1998 
      2 C         -82.9910   24.8609  -69.9116 C.2       0 UNK         0.4909 
      3 O         -84.1729   25.0125  -70.2221 O.2       0 UNK        -0.5240 
      4 N         -81.9804   25.3929  -70.6132 N.am      1 UNK        -0.4739 
      5 CA        -82.1416   26.1890  -71.8374 C.3       1 UNK         0.0864 
      6 C6        -80.8385   26.9595  -72.1745 C.3       11 UNK        -0.0881 
      7 S7        -81.1289   28.3821  -73.2822 S.3       11 UNK        -0.2682 
      8 C8        -80.2759   29.7350  -72.4144 C.3       11 UNK         0.0289 
      9 C9        -78.8124   29.8184  -72.8213 C.ar      11 UNK        -0.0687 
     10 C10       -78.4346   30.6343  -73.8923 C.ar      11 UNK        -0.0823 
     11 C11       -77.0920   30.7450  -74.2672 C.ar      11 UNK        -0.0830 
     12 C12       -76.1254   30.0230  -73.5618 C.ar      11 UNK        -0.1021 
     13 C13       -76.4914   29.1933  -72.4983 C.ar      11 UNK        -0.0753 
     14 C14       -77.8358   29.0990  -72.1260 C.ar      11 UNK        -0.0933 
     15 C15       -75.4241   28.4083  -71.7565 C.3       11 UNK         0.0166 
     16 S16       -74.6053   29.4571  -70.5170 S.3       11 UNK        -0.2615 
     17 C17       -72.9344   28.7262  -70.4659 C.3       11 UNK        -0.0865 
     18 CA        -71.9063   29.5718  -71.2618 C.3       10 UNK         0.0862 
     19 C         -70.4615   29.0674  -70.9977 C.2       10 UNK         0.5551 
     20 N         -69.7910   29.6100  -69.9909 N.am      10 UNK        -0.7319 
     21 O         -69.9632   28.1635  -71.6658 O.2       10 UNK        -0.5018 
     22 N         -72.2261   29.5950  -72.6955 N.am      10 UNK        -0.4509 
     23 C         -71.6930   30.4260  -73.5965 C.2       10 UNK         0.4899 
     24 O         -70.9378   31.3566  -73.3105 O.2       10 UNK        -0.4839 
     25 CA        -72.0505   30.1389  -75.0686 C.3       9 UNK         0.0222 
     26 CB        -71.5485   31.2318  -76.0299 C.3       9 UNK        -0.1966 
     27 N         -71.5218   28.8409  -75.4974 N.am      9 UNK        -0.4218 
     28 C         -72.0686   27.6569  -75.1970 C.2       9 UNK         0.5020 
     29 O         -73.1024   27.5316  -74.5385 O.2       9 UNK        -0.5274 
     30 CA        -71.3063   26.4092  -75.6454 C.3       8 UNK         0.0270 
     31 CB        -70.4538   25.8596  -74.4850 C.3       8 UNK        -0.1976 
     32 N         -72.2621   25.4040  -76.1047 N.am      8 UNK        -0.4313 
     33 C         -71.9507   24.3469  -76.8663 C.2       8 UNK         0.5041 
     34 O         -70.8051   24.0763  -77.2302 O.2       8 UNK        -0.5577 
     35 CA        -73.1107   23.4568  -77.3330 C.3       7 UNK         0.0284 
     36 CB        -73.6722   22.6102  -76.1777 C.3       7 UNK        -0.1958 
     37 N         -74.1697   24.2692  -77.9304 N.am      7 UNK        -0.4454 
     38 C         -74.1794   24.6709  -79.2101 C.2       7 UNK         0.5089 
     39 O         -73.3461   24.3154  -80.0444 O.2       7 UNK        -0.5125 
     40 CA        -75.3023   25.6301  -79.6470 C.3       6 UNK         0.0408 
     41 CB        -76.4336   24.8523  -80.3377 C.3       6 UNK        -0.1791 
     42 N         -75.8541   26.4102  -78.5374 N.am      6 UNK        -0.4762 
     43 C         -75.2162   27.4294  -77.9379 C.2       6 UNK         0.5007 
     44 O         -74.1219   27.8561  -78.3073 O.2       6 UNK        -0.5032 
     45 CA        -75.9005   28.0628  -76.7050 C.3       5 UNK         0.0783 
     46 C46       -76.6657   29.3591  -77.0929 C.3       11 UNK        -0.0857 
     47 S47       -75.6828   30.8449  -76.7001 S.3       11 UNK        -0.2512 
     48 C48       -76.6979   31.6621  -75.4217 C.3       11 UNK         0.0225 
     49 N         -76.7511   27.1255  -75.9626 N.am      5 UNK        -0.4615 
     50 C         -76.3410   25.9682  -75.4244 C.2       4 UNK         0.5053 
     51 O         -75.1847   25.5530  -75.4900 O.2       4 UNK        -0.5105 
     52 CA        -77.4095   25.0854  -74.7605 C.3       4 UNK         0.0263 
     53 CB        -77.4461   25.3480  -73.2476 C.3       4 UNK        -0.1981 
     54 N         -78.7600   25.2251  -75.3223 N.am      4 UNK        -0.4224 
     55 C         -79.0992   25.0230  -76.6061 C.2       3 UNK         0.4895 
     56 O         -78.2797   24.7992  -77.4990 O.2       3 UNK        -0.5091 
     57 CA        -80.6033   25.1001  -76.9438 C.3       3 UNK         0.0250 
     58 CB        -80.9439   24.4353  -78.2947 C.3       3 UNK        -0.1996 
     59 N         -81.4707   24.5820  -75.8751 N.am      3 UNK        -0.4254 
     60 C         -81.4782   23.3471  -75.3479 C.2       2 UNK         0.5004 
     61 O         -80.7414   22.4340  -75.7239 O.2       2 UNK        -0.5226 
     62 CA        -82.4495   23.1172  -74.1707 C.3       2 UNK         0.0269 
     63 CB        -82.3841   21.6817  -73.6153 C.3       2 UNK        -0.1926 
     64 N         -82.1947   24.0572  -73.0740 N.am      2 UNK        -0.4687 
     65 C         -82.6061   25.3330  -73.0375 C.2       1 UNK         0.5165 
     66 O         -83.2968   25.8386  -73.9237 O.2       1 UNK        -0.5079 
     67 H67       -81.5545   23.9911  -68.5242 H         1 UNK         0.0900 
     68 H68       -83.0064   23.0233  -68.7869 H         1 UNK         0.0900 
     69 H69       -83.0839   24.4805  -67.7930 H         1 UNK         0.0900 
     70 H70       -81.0311   25.2428  -70.3015 H         1 UNK         0.2959 
     71 H71       -82.9311   26.9190  -71.6426 H         1 UNK         0.1079 
     72 H72       -80.3833   27.3258  -71.2535 H         1 UNK         0.0837 
     73 H73       -80.0965   26.3017  -72.6256 H         1 UNK         0.0837 
     74 H74       -80.7783   30.6719  -72.6600 H         1 UNK         0.0685 
     75 H75       -80.3718   29.6227  -71.3335 H         1 UNK         0.0685 
     76 H76       -79.1911   31.1903  -74.4293 H         1 UNK         0.1434 
     77 H77       -75.0847   30.1046  -73.8401 H         1 UNK         0.1329 
     78 H78       -78.1206   28.4680  -71.2956 H         1 UNK         0.1335 
     79 H79       -75.8546   27.5349  -71.2643 H         1 UNK         0.0680 
     80 H80       -74.6978   28.0278  -72.4748 H         1 UNK         0.0680 
     81 H81       -72.9583   27.6961  -70.8272 H         1 UNK         0.1032 
     82 H82       -72.6434   28.6666  -69.4152 H         1 UNK         0.1032 
     83 H83       -71.9674   30.6014  -70.9025 H         1 UNK         0.0461 
     84 H84       -68.8574   29.2851  -69.7929 H         1 UNK         0.3453 
     85 H85       -70.1942   30.3456  -69.4313 H         1 UNK         0.3453 
     86 H86       -72.7675   28.8142  -73.0513 H         1 UNK         0.2984 
     87 H87       -73.1388   30.1158  -75.1434 H         1 UNK         0.0554 
     88 H88       -71.8708   31.0362  -77.0529 H         1 UNK         0.0847 
     89 H89       -70.4606   31.3087  -76.0273 H         1 UNK         0.0847 
     90 H90       -71.9460   32.2083  -75.7498 H         1 UNK         0.0847 
     91 H91       -70.6454   28.8577  -75.9994 H         1 UNK         0.3141 
     92 H92       -70.6543   26.6772  -76.4796 H         1 UNK         0.0743 
     93 H93       -71.0757   25.5495  -73.6442 H         1 UNK         0.0784 
     94 H94       -69.8561   25.0023  -74.7941 H         1 UNK         0.0784 
     95 H95       -69.7621   26.6175  -74.1145 H         1 UNK         0.0784 
     96 H96       -73.2310   25.5716  -75.8342 H         1 UNK         0.3213 
     97 H97       -72.7232   22.7665  -78.0859 H         1 UNK         0.0855 
     98 H98       -74.0450   23.2225  -75.3569 H         1 UNK         0.0814 
     99 H99       -72.8999   21.9584  -75.7675 H         1 UNK         0.0814 
    100 H100      -74.4884   21.9716  -76.5157 H         1 UNK         0.0814 
    101 H101      -74.8509   24.6629  -77.2909 H         1 UNK         0.3105 
    102 H102      -74.8789   26.3254  -80.3750 H         1 UNK         0.0547 
    103 H103      -76.0614   24.3226  -81.2156 H         1 UNK         0.0837 
    104 H104      -76.8764   24.1083  -79.6746 H         1 UNK         0.0837 
    105 H105      -77.2285   25.5180  -80.6739 H         1 UNK         0.0837 
    106 H106      -76.7369   26.0869  -78.1539 H         1 UNK         0.3020 
    107 H107      -75.0946   28.3170  -76.0137 H         1 UNK         0.1245 
    108 H108      -77.6224   29.4215  -76.5732 H         1 UNK         0.0781 
    109 H109      -76.9269   29.3863  -78.1530 H         1 UNK         0.0781 
    110 H110      -77.5841   32.0781  -75.9036 H         1 UNK         0.0836 
    111 H111      -76.1414   32.5107  -75.0220 H         1 UNK         0.0836 
    112 H112      -77.7217   27.3799  -75.8597 H         1 UNK         0.3022 
    113 H113      -77.1068   24.0479  -74.9173 H         1 UNK         0.0747 
    114 H114      -78.1294   24.6679  -72.7389 H         1 UNK         0.0793 
    115 H115      -76.4595   25.2034  -72.8046 H         1 UNK         0.0793 
    116 H116      -77.7510   26.3706  -73.0264 H         1 UNK         0.0793 
    117 H117      -79.5037   25.4132  -74.6682 H         1 UNK         0.3047 
    118 H118      -80.8341   26.1626  -77.0340 H         1 UNK         0.0822 
    119 H119      -82.0060   24.5219  -78.5235 H         1 UNK         0.0807 
    120 H120      -80.6839   23.3763  -78.3009 H         1 UNK         0.0807 
    121 H121      -80.3985   24.9075  -79.1129 H         1 UNK         0.0807 
    122 H122      -82.1177   25.2512  -75.4679 H         1 UNK         0.2946 
    123 H123      -83.4602   23.2788  -74.5533 H         1 UNK         0.1144 
    124 H124      -83.1116   21.5320  -72.8173 H         1 UNK         0.0793 
    125 H125      -81.3961   21.4457  -73.2178 H         1 UNK         0.0793 
    126 H126      -82.6061   20.9507  -74.3940 H         1 UNK         0.0793 
    127 H127      -81.6243   23.7193  -72.3123 H         1 UNK         0.2896 
@<TRIPOS>BOND
     1    1    2 1    
     2    1   67 1    
     3    1   68 1    
     4    1   69 1    
     5    2    3 2    
     6    2    4 am   BACKBONE|DICT|INTERRES
     7    4    5 1    
     8    4   70 1    
     9    5    6 1    
    10    5   65 1    
    11    5   71 1    
    12    6    7 1    
    13    6   72 1    
    14    6   73 1    
    15    7    8 1    
    16    8    9 1    
    17    8   74 1    
    18    8   75 1    
    19    9   10 ar   
    20    9   14 ar   
    21   10   11 ar   
    22   10   76 1    
    23   11   12 ar   
    24   11   48 1    
    25   12   13 ar   
    26   12   77 1    
    27   13   14 ar   
    28   13   15 1    
    29   14   78 1    
    30   15   16 1    
    31   15   79 1    
    32   15   80 1    
    33   16   17 1    
    34   17   18 1    
    35   17   81 1    
    36   17   82 1    
    37   18   19 1    
    38   18   22 1    
    39   18   83 1    
    40   19   20 am   BACKBONE|DICT|INTERRES
    41   19   21 2    
    42   20   84 1    
    43   20   85 1    
    44   22   23 am   BACKBONE|DICT|INTERRES
    45   22   86 1    
    46   23   24 2    
    47   23   25 1    
    48   25   26 1    
    49   25   27 1    
    50   25   87 1    
    51   26   88 1    
    52   26   89 1    
    53   26   90 1    
    54   27   28 am   BACKBONE|DICT|INTERRES
    55   27   91 1    
    56   28   29 2    
    57   28   30 1    
    58   30   31 1    
    59   30   32 1    
    60   30   92 1    
    61   31   93 1    
    62   31   94 1    
    63   31   95 1    
    64   32   33 am   BACKBONE|DICT|INTERRES
    65   32   96 1    
    66   33   34 2    
    67   33   35 1    
    68   35   36 1    
    69   35   37 1    
    70   35   97 1    
    71   36   98 1    
    72   36   99 1    
    73   36  100 1    
    74   37   38 am   BACKBONE|DICT|INTERRES
    75   37  101 1    
    76   38   39 2    
    77   38   40 1    
    78   40   41 1    
    79   40   42 1    
    80   40  102 1    
    81   41  103 1    
    82   41  104 1    
    83   41  105 1    
    84   42   43 am   BACKBONE|DICT|INTERRES
    85   42  106 1    
    86   43   44 2    
    87   43   45 1    
    88   45   46 1    
    89   45   49 1    
    90   45  107 1    
    91   46   47 1    
    92   46  108 1    
    93   46  109 1    
    94   47   48 1    
    95   48  110 1    
    96   48  111 1    
    97   49   50 am   BACKBONE|DICT|INTERRES
    98   49  112 1    
    99   50   51 2    
   100   50   52 1    
   101   52   53 1    
   102   52   54 1    
   103   52  113 1    
   104   53  114 1    
   105   53  115 1    
   106   53  116 1    
   107   54   55 am   BACKBONE|DICT|INTERRES
   108   54  117 1    
   109   55   56 2    
   110   55   57 1    
   111   57   58 1    
   112   57   59 1    
   113   57  118 1    
   114   58  119 1    
   115   58  120 1    
   116   58  121 1    
   117   59   60 am   BACKBONE|DICT|INTERRES
   118   59  122 1    
   119   60   61 2    
   120   60   62 1    
   121   62   63 1    
   122   62   64 1    
   123   62  123 1    
   124   63  124 1    
   125   63  125 1    
   126   63  126 1    
   127   64   65 am   BACKBONE|DICT|INTERRES
   128   64  127 1    
   129   65   66 2    
@<TRIPOS>SUBSTRUCTURE
     1 UNK         1 GROUP             0       ****    0 ROOT    
