@<TRIPOS>MOLECULE
3R135
127   129    1
SMALL
USER_CHARGES


@<TRIPOS>ATOM
      1 CA        -82.1361   22.4172  -70.6684 C.3       0 UNK        -0.1998 
      2 C         -82.2615   23.7509  -71.3888 C.2       0 UNK         0.4909 
      3 O         -83.3717   24.1652  -71.7256 O.2       0 UNK        -0.5240 
      4 N         -81.1316   24.4247  -71.6379 N.am      1 UNK        -0.4739 
      5 CA        -81.0293   25.7307  -72.3045 C.3       1 UNK         0.0864 
      6 C6        -79.6973   26.4415  -71.9461 C.3       11 UNK        -0.0881 
      7 S7        -79.4964   26.7724  -70.1605 S.3       11 UNK        -0.2682 
      8 C8        -79.7782   28.5721  -70.0484 C.3       11 UNK         0.0289 
      9 C9        -78.7866   29.3674  -70.8879 C.ar      11 UNK        -0.0687 
     10 C10       -79.1928   29.9240  -72.1044 C.ar      11 UNK        -0.0823 
     11 C11       -78.2802   30.6005  -72.9166 C.ar      11 UNK        -0.0830 
     12 C12       -76.9621   30.7619  -72.4829 C.ar      11 UNK        -0.1021 
     13 C13       -76.5464   30.2226  -71.2627 C.ar      11 UNK        -0.0753 
     14 C14       -77.4622   29.5263  -70.4668 C.ar      11 UNK        -0.0933 
     15 C15       -75.0975   30.3685  -70.8315 C.3       11 UNK         0.0166 
     16 S16       -74.0806   29.0717  -71.5946 S.3       11 UNK        -0.2615 
     17 C17       -72.3993   29.6795  -71.2251 C.3       11 UNK        -0.0865 
     18 CA        -71.7624   30.4919  -72.3867 C.3       10 UNK         0.0862 
     19 C         -70.3121   30.9106  -72.0045 C.2       10 UNK         0.5551 
     20 N         -69.2770   30.3033  -72.5732 N.am      10 UNK        -0.7319 
     21 O         -70.1289   31.7970  -71.1738 O.2       10 UNK        -0.5018 
     22 N         -71.8908   29.7852  -73.6705 N.am      10 UNK        -0.4509 
     23 C         -71.5802   30.2572  -74.8849 C.2       10 UNK         0.4899 
     24 O         -71.1744   31.4025  -75.0870 O.2       10 UNK        -0.4839 
     25 CA        -71.7750   29.3024  -76.0836 C.3       9 UNK         0.0222 
     26 CB        -70.5871   29.3497  -77.0670 C.3       9 UNK        -0.1966 
     27 N         -72.0990   27.9169  -75.7086 N.am      9 UNK        -0.4218 
     28 C         -71.3239   27.0422  -75.0466 C.2       9 UNK         0.5020 
     29 O         -70.1708   27.2785  -74.6839 O.2       9 UNK        -0.5274 
     30 CA        -71.9605   25.6958  -74.6716 C.3       8 UNK         0.0270 
     31 CB        -72.7165   25.8209  -73.3384 C.3       8 UNK        -0.1976 
     32 N         -72.8647   25.1859  -75.7045 N.am      8 UNK        -0.4313 
     33 C         -72.4507   24.6126  -76.8435 C.2       8 UNK         0.5041 
     34 O         -71.2656   24.4375  -77.1310 O.2       8 UNK        -0.5577 
     35 CA        -73.5364   24.1527  -77.8311 C.3       7 UNK         0.0284 
     36 CB        -74.1766   22.8355  -77.3659 C.3       7 UNK        -0.1958 
     37 N         -74.5739   25.1628  -78.0460 N.am      7 UNK        -0.4454 
     38 C         -74.3681   26.3378  -78.6580 C.2       7 UNK         0.5089 
     39 O         -73.2877   26.6883  -79.1330 O.2       7 UNK        -0.5125 
     40 CA        -75.5705   27.2899  -78.7538 C.3       6 UNK         0.0408 
     41 CB        -76.4192   26.9693  -79.9942 C.3       6 UNK        -0.1791 
     42 N         -76.4176   27.2614  -77.5609 N.am      6 UNK        -0.4762 
     43 C         -76.0495   27.7186  -76.3551 C.2       6 UNK         0.5007 
     44 O         -74.9363   28.1828  -76.1075 O.2       6 UNK        -0.5032 
     45 CA        -77.0979   27.5910  -75.2280 C.3       5 UNK         0.0783 
     46 C46       -78.3020   28.5511  -75.4481 C.3       11 UNK        -0.0857 
     47 S47       -77.8454   30.3146  -75.6482 S.3       11 UNK        -0.2512 
     48 C48       -78.7157   31.1346  -74.2725 C.3       11 UNK         0.0225 
     49 N         -77.5506   26.1997  -75.0809 N.am      5 UNK        -0.4615 
     50 C         -76.7603   25.1271  -74.9106 C.2       4 UNK         0.5053 
     51 O         -75.5417   25.1888  -74.7583 O.2       4 UNK        -0.5105 
     52 CA        -77.4178   23.7378  -74.9916 C.3       4 UNK         0.0263 
     53 CB        -77.9142   23.2687  -73.6162 C.3       4 UNK        -0.1981 
     54 N         -78.5095   23.6518  -75.9624 N.am      4 UNK        -0.4224 
     55 C         -78.4290   23.9111  -77.2739 C.2       3 UNK         0.4895 
     56 O         -77.3857   24.2447  -77.8373 O.2       3 UNK        -0.5091 
     57 CA        -79.7308   23.8231  -78.0970 C.3       3 UNK         0.0250 
     58 CB        -79.9426   22.3997  -78.6479 C.3       3 UNK        -0.1996 
     59 N         -80.9284   24.3283  -77.4009 N.am      3 UNK        -0.4254 
     60 C         -81.5384   23.8295  -76.3152 C.2       2 UNK         0.5004 
     61 O         -81.2176   22.7746  -75.7627 O.2       2 UNK        -0.5226 
     62 CA        -82.6355   24.7009  -75.6801 C.3       2 UNK         0.0269 
     63 CB        -84.0039   24.0056  -75.7619 C.3       2 UNK        -0.1926 
     64 N         -82.3261   24.9988  -74.2772 N.am      2 UNK        -0.4687 
     65 C         -81.2201   25.6160  -73.8381 C.2       1 UNK         0.5165 
     66 O         -80.3595   26.0633  -74.6000 O.2       1 UNK        -0.5079 
     67 H67       -82.7463   22.4205  -69.7646 H         1 UNK         0.0900 
     68 H68       -82.4839   21.6092  -71.3129 H         1 UNK         0.0900 
     69 H69       -81.1057   22.2043  -70.3812 H         1 UNK         0.0900 
     70 H70       -80.2534   24.0332  -71.3291 H         1 UNK         0.2959 
     71 H71       -81.8450   26.3620  -71.9446 H         1 UNK         0.1079 
     72 H72       -78.8414   25.8459  -72.2653 H         1 UNK         0.0837 
     73 H73       -79.6137   27.3737  -72.4996 H         1 UNK         0.0837 
     74 H74       -80.8041   28.7911  -70.3492 H         1 UNK         0.0685 
     75 H75       -79.6947   28.8780  -69.0045 H         1 UNK         0.0685 
     76 H76       -80.2144   29.7974  -72.4362 H         1 UNK         0.1434 
     77 H77       -76.2505   31.2802  -73.1117 H         1 UNK         0.1329 
     78 H78       -77.1409   29.0881  -69.5317 H         1 UNK         0.1335 
     79 H79       -75.0100   30.3111  -69.7453 H         1 UNK         0.0680 
     80 H80       -74.7219   31.3499  -71.1257 H         1 UNK         0.0680 
     81 H81       -72.4248   30.2747  -70.3099 H         1 UNK         0.1032 
     82 H82       -71.7826   28.8082  -70.9946 H         1 UNK         0.1032 
     83 H83       -72.3304   31.4183  -72.4912 H         1 UNK         0.0461 
     84 H84       -68.3404   30.5786  -72.3230 H         1 UNK         0.3453 
     85 H85       -69.4275   29.5710  -73.2509 H         1 UNK         0.3453 
     86 H86       -72.2467   28.8437  -73.6102 H         1 UNK         0.2984 
     87 H87       -72.6518   29.6727  -76.6164 H         1 UNK         0.0554 
     88 H88       -70.7501   28.6847  -77.9154 H         1 UNK         0.0847 
     89 H89       -69.6503   29.0623  -76.5892 H         1 UNK         0.0847 
     90 H90       -70.4499   30.3550  -77.4670 H         1 UNK         0.0847 
     91 H91       -73.0623   27.6543  -75.9036 H         1 UNK         0.3141 
     92 H92       -71.1527   24.9738  -74.5330 H         1 UNK         0.0743 
     93 H93       -73.5492   26.5223  -73.4093 H         1 UNK         0.0784 
     94 H94       -73.1198   24.8592  -73.0204 H         1 UNK         0.0784 
     95 H95       -72.0577   26.1752  -72.5443 H         1 UNK         0.0784 
     96 H96       -73.8638   25.2544  -75.5123 H         1 UNK         0.3213 
     97 H97       -73.0534   23.9689  -78.7934 H         1 UNK         0.0855 
     98 H98       -74.6238   22.9326  -76.3776 H         1 UNK         0.0814 
     99 H99       -73.4301   22.0425  -77.3060 H         1 UNK         0.0814 
    100 H100      -74.9519   22.5016  -78.0559 H         1 UNK         0.0814 
    101 H101      -75.5174   24.9354  -77.7448 H         1 UNK         0.3105 
    102 H102      -75.1816   28.3047  -78.8625 H         1 UNK         0.0547 
    103 H103      -75.8140   27.0116  -80.9008 H         1 UNK         0.0837 
    104 H104      -76.8550   25.9709  -79.9411 H         1 UNK         0.0837 
    105 H105      -77.2321   27.6853  -80.1157 H         1 UNK         0.0837 
    106 H106      -77.3247   26.8283  -77.6573 H         1 UNK         0.3020 
    107 H107      -76.6042   27.8712  -74.2942 H         1 UNK         0.1245 
    108 H108      -79.0002   28.4562  -74.6168 H         1 UNK         0.0781 
    109 H109      -78.8673   28.2531  -76.3329 H         1 UNK         0.0781 
    110 H110      -79.7915   31.0189  -74.4145 H         1 UNK         0.0836 
    111 H111      -78.5150   32.2059  -74.3153 H         1 UNK         0.0836 
    112 H112      -78.5558   26.0523  -75.1325 H         1 UNK         0.3022 
    113 H113      -76.6474   23.0386  -75.3178 H         1 UNK         0.0747 
    114 H114      -78.1560   22.2056  -73.6295 H         1 UNK         0.0793 
    115 H115      -77.1541   23.4182  -72.8477 H         1 UNK         0.0793 
    116 H116      -78.8098   23.8041  -73.3082 H         1 UNK         0.0793 
    117 H117      -79.4168   23.3538  -75.6141 H         1 UNK         0.3047 
    118 H118      -79.5923   24.4838  -78.9544 H         1 UNK         0.0822 
    119 H119      -80.0539   21.6626  -77.8523 H         1 UNK         0.0807 
    120 H120      -79.0914   22.0899  -79.2558 H         1 UNK         0.0807 
    121 H121      -80.8287   22.3472  -79.2806 H         1 UNK         0.0807 
    122 H122      -81.2583   25.2206  -77.7429 H         1 UNK         0.2946 
    123 H123      -82.6958   25.6507  -76.2159 H         1 UNK         0.1144 
    124 H124      -84.2669   23.7809  -76.7965 H         1 UNK         0.0793 
    125 H125      -84.0105   23.0639  -75.2110 H         1 UNK         0.0793 
    126 H126      -84.7949   24.6366  -75.3561 H         1 UNK         0.0793 
    127 H127      -82.9573   24.6279  -73.5730 H         1 UNK         0.2896 
@<TRIPOS>BOND
     1    1    2 1    
     2    1   67 1    
     3    1   68 1    
     4    1   69 1    
     5    2    3 2    
     6    2    4 am   BACKBONE|DICT|INTERRES
     7    4    5 1    
     8    4   70 1    
     9    5    6 1    
    10    5   65 1    
    11    5   71 1    
    12    6    7 1    
    13    6   72 1    
    14    6   73 1    
    15    7    8 1    
    16    8    9 1    
    17    8   74 1    
    18    8   75 1    
    19    9   10 ar   
    20    9   14 ar   
    21   10   11 ar   
    22   10   76 1    
    23   11   12 ar   
    24   11   48 1    
    25   12   13 ar   
    26   12   77 1    
    27   13   14 ar   
    28   13   15 1    
    29   14   78 1    
    30   15   16 1    
    31   15   79 1    
    32   15   80 1    
    33   16   17 1    
    34   17   18 1    
    35   17   81 1    
    36   17   82 1    
    37   18   19 1    
    38   18   22 1    
    39   18   83 1    
    40   19   20 am   BACKBONE|DICT|INTERRES
    41   19   21 2    
    42   20   84 1    
    43   20   85 1    
    44   22   23 am   BACKBONE|DICT|INTERRES
    45   22   86 1    
    46   23   24 2    
    47   23   25 1    
    48   25   26 1    
    49   25   27 1    
    50   25   87 1    
    51   26   88 1    
    52   26   89 1    
    53   26   90 1    
    54   27   28 am   BACKBONE|DICT|INTERRES
    55   27   91 1    
    56   28   29 2    
    57   28   30 1    
    58   30   31 1    
    59   30   32 1    
    60   30   92 1    
    61   31   93 1    
    62   31   94 1    
    63   31   95 1    
    64   32   33 am   BACKBONE|DICT|INTERRES
    65   32   96 1    
    66   33   34 2    
    67   33   35 1    
    68   35   36 1    
    69   35   37 1    
    70   35   97 1    
    71   36   98 1    
    72   36   99 1    
    73   36  100 1    
    74   37   38 am   BACKBONE|DICT|INTERRES
    75   37  101 1    
    76   38   39 2    
    77   38   40 1    
    78   40   41 1    
    79   40   42 1    
    80   40  102 1    
    81   41  103 1    
    82   41  104 1    
    83   41  105 1    
    84   42   43 am   BACKBONE|DICT|INTERRES
    85   42  106 1    
    86   43   44 2    
    87   43   45 1    
    88   45   46 1    
    89   45   49 1    
    90   45  107 1    
    91   46   47 1    
    92   46  108 1    
    93   46  109 1    
    94   47   48 1    
    95   48  110 1    
    96   48  111 1    
    97   49   50 am   BACKBONE|DICT|INTERRES
    98   49  112 1    
    99   50   51 2    
   100   50   52 1    
   101   52   53 1    
   102   52   54 1    
   103   52  113 1    
   104   53  114 1    
   105   53  115 1    
   106   53  116 1    
   107   54   55 am   BACKBONE|DICT|INTERRES
   108   54  117 1    
   109   55   56 2    
   110   55   57 1    
   111   57   58 1    
   112   57   59 1    
   113   57  118 1    
   114   58  119 1    
   115   58  120 1    
   116   58  121 1    
   117   59   60 am   BACKBONE|DICT|INTERRES
   118   59  122 1    
   119   60   61 2    
   120   60   62 1    
   121   62   63 1    
   122   62   64 1    
   123   62  123 1    
   124   63  124 1    
   125   63  125 1    
   126   63  126 1    
   127   64   65 am   BACKBONE|DICT|INTERRES
   128   64  127 1    
   129   65   66 2    
@<TRIPOS>SUBSTRUCTURE
     1 UNK         1 GROUP             0       ****    0 ROOT    
