@<TRIPOS>MOLECULE
3R135
127   129    1
SMALL
USER_CHARGES


@<TRIPOS>ATOM
      1 CA        -82.7202   22.9640  -68.9539 C.3       0 UNK        -0.1998 
      2 C         -82.9587   24.0223  -70.0205 C.2       0 UNK         0.4909 
      3 O         -84.0357   24.0592  -70.6172 O.2       0 UNK        -0.5240 
      4 N         -81.9667   24.8895  -70.2561 N.am      1 UNK        -0.4739 
      5 CA        -81.9768   25.9220  -71.2972 C.3       1 UNK         0.0864 
      6 C6        -80.9152   27.0257  -71.0423 C.3       11 UNK        -0.0881 
      7 S7        -79.2709   26.4146  -70.5235 S.3       11 UNK        -0.2682 
      8 C8        -78.3234   26.5255  -72.0678 C.3       11 UNK         0.0289 
      9 C9        -77.9472   27.9546  -72.4196 C.ar      11 UNK        -0.0687 
     10 C10       -78.6385   28.6295  -73.4271 C.ar      11 UNK        -0.0823 
     11 C11       -78.2317   29.9015  -73.8370 C.ar      11 UNK        -0.0830 
     12 C12       -77.1487   30.5165  -73.2026 C.ar      11 UNK        -0.1021 
     13 C13       -76.4660   29.8624  -72.1723 C.ar      11 UNK        -0.0753 
     14 C14       -76.8715   28.5809  -71.7838 C.ar      11 UNK        -0.0933 
     15 C15       -75.2741   30.5278  -71.5006 C.3       11 UNK         0.0166 
     16 S16       -73.7365   29.6422  -71.8927 S.3       11 UNK        -0.2615 
     17 C17       -72.4561   30.8115  -71.3270 C.3       11 UNK        -0.0865 
     18 CA        -71.5537   31.2915  -72.4937 C.3       10 UNK         0.0862 
     19 C         -70.5274   32.3408  -71.9845 C.2       10 UNK         0.5551 
     20 N         -70.8586   33.6221  -72.0649 N.am      10 UNK        -0.7319 
     21 O         -69.4603   32.0003  -71.4767 O.2       10 UNK        -0.5018 
     22 N         -70.9201   30.1522  -73.1765 N.am      10 UNK        -0.4509 
     23 C         -70.1790   30.2158  -74.2899 C.2       10 UNK         0.4899 
     24 O         -69.9629   31.2537  -74.9165 O.2       10 UNK        -0.4839 
     25 CA        -69.5736   28.8946  -74.7993 C.3       9 UNK         0.0222 
     26 CB        -68.1315   28.7389  -74.2888 C.3       9 UNK        -0.1966 
     27 N         -70.3519   27.7089  -74.4215 N.am      9 UNK        -0.4218 
     28 C         -71.5047   27.3433  -74.9989 C.2       9 UNK         0.5020 
     29 O         -72.0445   27.9699  -75.9133 O.2       9 UNK        -0.5274 
     30 CA        -72.1711   26.0758  -74.4372 C.3       8 UNK         0.0270 
     31 CB        -73.1695   26.4267  -73.3238 C.3       8 UNK        -0.1976 
     32 N         -72.8747   25.3239  -75.4748 N.am      8 UNK        -0.4313 
     33 C         -72.2775   24.5680  -76.4043 C.2       8 UNK         0.5041 
     34 O         -71.0566   24.4264  -76.4933 O.2       8 UNK        -0.5577 
     35 CA        -73.1936   23.8186  -77.3813 C.3       7 UNK         0.0284 
     36 CB        -73.8174   22.5884  -76.6999 C.3       7 UNK        -0.1958 
     37 N         -74.2573   24.6780  -77.9018 N.am      7 UNK        -0.4454 
     38 C         -74.1789   25.3775  -79.0417 C.2       7 UNK         0.5089 
     39 O         -73.1838   25.3925  -79.7673 O.2       7 UNK        -0.5125 
     40 CA        -75.4261   26.1700  -79.4756 C.3       6 UNK         0.0408 
     41 CB        -76.1819   25.4100  -80.5774 C.3       6 UNK        -0.1791 
     42 N         -76.3470   26.4421  -78.3700 N.am      6 UNK        -0.4762 
     43 C         -76.2014   27.4551  -77.5010 C.2       6 UNK         0.5007 
     44 O         -75.2949   28.2843  -77.5730 O.2       6 UNK        -0.5032 
     45 CA        -77.2343   27.5512  -76.3538 C.3       5 UNK         0.0783 
     46 C46       -78.4311   28.4480  -76.7777 C.3       11 UNK        -0.0857 
     47 S47       -78.0988   30.2317  -76.5763 S.3       11 UNK        -0.2512 
     48 C48       -78.9336   30.5906  -74.9963 C.3       11 UNK         0.0225 
     49 N         -77.6963   26.2370  -75.8803 N.am      5 UNK        -0.4615 
     50 C         -76.9092   25.2310  -75.4635 C.2       4 UNK         0.5053 
     51 O         -75.6954   25.3445  -75.3002 O.2       4 UNK        -0.5105 
     52 CA        -77.5412   23.8328  -75.2952 C.3       4 UNK         0.0263 
     53 CB        -77.6169   23.4072  -73.8207 C.3       4 UNK        -0.1981 
     54 N         -78.8573   23.6857  -75.9215 N.am      4 UNK        -0.4224 
     55 C         -79.1006   23.8261  -77.2329 C.2       3 UNK         0.4895 
     56 O         -78.2164   24.0110  -78.0710 O.2       3 UNK        -0.5091 
     57 CA        -80.5694   23.8250  -77.6896 C.3       3 UNK         0.0250 
     58 CB        -80.9228   22.4754  -78.3351 C.3       3 UNK        -0.1996 
     59 N         -81.5663   24.1365  -76.6555 N.am      3 UNK        -0.4254 
     60 C         -81.6186   25.2305  -75.8787 C.2       2 UNK         0.5004 
     61 O         -80.7373   26.0920  -75.8474 O.2       2 UNK        -0.5226 
     62 CA        -82.8858   25.4124  -75.0170 C.3       2 UNK         0.0269 
     63 CB        -83.7940   24.1606  -74.9536 C.3       2 UNK        -0.1926 
     64 N         -82.6159   25.9033  -73.6594 N.am      2 UNK        -0.4687 
     65 C         -81.8840   25.3007  -72.7103 C.2       1 UNK         0.5165 
     66 O         -81.1952   24.2944  -72.9022 O.2       1 UNK        -0.5079 
     67 H67       -83.4662   23.0514  -68.1645 H         1 UNK         0.0900 
     68 H68       -82.7992   21.9684  -69.3898 H         1 UNK         0.0900 
     69 H69       -81.7336   23.0581  -68.5003 H         1 UNK         0.0900 
     70 H70       -81.0904   24.7993  -69.7607 H         1 UNK         0.2959 
     71 H71       -82.9538   26.4079  -71.2364 H         1 UNK         0.1079 
     72 H72       -80.8228   27.6891  -71.9029 H         1 UNK         0.0837 
     73 H73       -81.2709   27.6667  -70.2342 H         1 UNK         0.0837 
     74 H74       -77.4155   25.9286  -71.9696 H         1 UNK         0.0685 
     75 H75       -78.9007   26.0779  -72.8771 H         1 UNK         0.0685 
     76 H76       -79.4671   28.1427  -73.9229 H         1 UNK         0.1434 
     77 H77       -76.8263   31.4969  -73.5261 H         1 UNK         0.1329 
     78 H78       -76.3309   28.0603  -71.0050 H         1 UNK         0.1335 
     79 H79       -75.4210   30.5425  -70.4198 H         1 UNK         0.0680 
     80 H80       -75.1851   31.5670  -71.8214 H         1 UNK         0.0680 
     81 H81       -72.9328   31.6625  -70.8364 H         1 UNK         0.1032 
     82 H82       -71.8584   30.3188  -70.5576 H         1 UNK         0.1032 
     83 H83       -72.1921   31.7805  -73.2327 H         1 UNK         0.0461 
     84 H84       -71.7351   33.9101  -72.4717 H         1 UNK         0.3453 
     85 H85       -70.2131   34.3176  -71.7242 H         1 UNK         0.3453 
     86 H86       -71.0491   29.2540  -72.7375 H         1 UNK         0.2984 
     87 H87       -69.5399   28.9479  -75.8897 H         1 UNK         0.0554 
     88 H88       -67.5199   29.5929  -74.5838 H         1 UNK         0.0847 
     89 H89       -67.6575   27.8473  -74.6997 H         1 UNK         0.0847 
     90 H90       -68.0910   28.6722  -73.2008 H         1 UNK         0.0847 
     91 H91       -69.9760   27.1360  -73.6789 H         1 UNK         0.3141 
     92 H92       -71.3992   25.4285  -74.0148 H         1 UNK         0.0743 
     93 H93       -73.9501   27.1007  -73.6813 H         1 UNK         0.0784 
     94 H94       -73.6570   25.5348  -72.9296 H         1 UNK         0.0784 
     95 H95       -72.6672   26.9150  -72.4886 H         1 UNK         0.0784 
     96 H96       -73.8910   25.3954  -75.4718 H         1 UNK         0.3213 
     97 H97       -72.5774   23.4604  -78.2094 H         1 UNK         0.0855 
     98 H98       -74.4178   22.8621  -75.8319 H         1 UNK         0.0814 
     99 H99       -73.0422   21.9036  -76.3534 H         1 UNK         0.0814 
    100 H100      -74.4550   22.0335  -77.3883 H         1 UNK         0.0814 
    101 H101      -75.0853   24.7821  -77.3312 H         1 UNK         0.3105 
    102 H102      -75.0849   27.1182  -79.8965 H         1 UNK         0.0547 
    103 H103      -75.5376   25.2283  -81.4387 H         1 UNK         0.0837 
    104 H104      -76.5386   24.4403  -80.2280 H         1 UNK         0.0837 
    105 H105      -77.0430   25.9763  -80.9323 H         1 UNK         0.0837 
    106 H106      -77.1058   25.7801  -78.2387 H         1 UNK         0.3020 
    107 H107      -76.7210   28.0129  -75.5070 H         1 UNK         0.1245 
    108 H108      -79.3195   28.2108  -76.1951 H         1 UNK         0.0781 
    109 H109      -78.7242   28.2591  -77.8126 H         1 UNK         0.0781 
    110 H110      -79.9798   30.2856  -75.0518 H         1 UNK         0.0836 
    111 H111      -78.9403   31.6699  -74.8363 H         1 UNK         0.0836 
    112 H112      -78.6938   26.0646  -75.9605 H         1 UNK         0.3022 
    113 H113      -76.8689   23.1374  -75.8013 H         1 UNK         0.0747 
    114 H114      -77.7847   22.3336  -73.7345 H         1 UNK         0.0793 
    115 H115      -76.6880   23.6297  -73.2932 H         1 UNK         0.0793 
    116 H116      -78.4276   23.9050  -73.2916 H         1 UNK         0.0793 
    117 H117      -79.6468   23.5694  -75.3011 H         1 UNK         0.3047 
    118 H118      -80.6558   24.5999  -78.4541 H         1 UNK         0.0822 
    119 H119      -81.9165   22.4957  -78.7832 H         1 UNK         0.0807 
    120 H120      -80.8967   21.6620  -77.6088 H         1 UNK         0.0807 
    121 H121      -80.2187   22.2247  -79.1302 H         1 UNK         0.0807 
    122 H122      -82.3359   23.4867  -76.5831 H         1 UNK         0.2946 
    123 H123      -83.4553   26.2005  -75.5126 H         1 UNK         0.1144 
    124 H124      -84.6725   24.3474  -74.3355 H         1 UNK         0.0793 
    125 H125      -83.2753   23.2995  -74.5297 H         1 UNK         0.0793 
    126 H126      -84.1632   23.8800  -75.9409 H         1 UNK         0.0793 
    127 H127      -83.1012   26.7552  -73.4140 H         1 UNK         0.2896 
@<TRIPOS>BOND
     1    1    2 1    
     2    1   67 1    
     3    1   68 1    
     4    1   69 1    
     5    2    3 2    
     6    2    4 am   BACKBONE|DICT|INTERRES
     7    4    5 1    
     8    4   70 1    
     9    5    6 1    
    10    5   65 1    
    11    5   71 1    
    12    6    7 1    
    13    6   72 1    
    14    6   73 1    
    15    7    8 1    
    16    8    9 1    
    17    8   74 1    
    18    8   75 1    
    19    9   10 ar   
    20    9   14 ar   
    21   10   11 ar   
    22   10   76 1    
    23   11   12 ar   
    24   11   48 1    
    25   12   13 ar   
    26   12   77 1    
    27   13   14 ar   
    28   13   15 1    
    29   14   78 1    
    30   15   16 1    
    31   15   79 1    
    32   15   80 1    
    33   16   17 1    
    34   17   18 1    
    35   17   81 1    
    36   17   82 1    
    37   18   19 1    
    38   18   22 1    
    39   18   83 1    
    40   19   20 am   BACKBONE|DICT|INTERRES
    41   19   21 2    
    42   20   84 1    
    43   20   85 1    
    44   22   23 am   BACKBONE|DICT|INTERRES
    45   22   86 1    
    46   23   24 2    
    47   23   25 1    
    48   25   26 1    
    49   25   27 1    
    50   25   87 1    
    51   26   88 1    
    52   26   89 1    
    53   26   90 1    
    54   27   28 am   BACKBONE|DICT|INTERRES
    55   27   91 1    
    56   28   29 2    
    57   28   30 1    
    58   30   31 1    
    59   30   32 1    
    60   30   92 1    
    61   31   93 1    
    62   31   94 1    
    63   31   95 1    
    64   32   33 am   BACKBONE|DICT|INTERRES
    65   32   96 1    
    66   33   34 2    
    67   33   35 1    
    68   35   36 1    
    69   35   37 1    
    70   35   97 1    
    71   36   98 1    
    72   36   99 1    
    73   36  100 1    
    74   37   38 am   BACKBONE|DICT|INTERRES
    75   37  101 1    
    76   38   39 2    
    77   38   40 1    
    78   40   41 1    
    79   40   42 1    
    80   40  102 1    
    81   41  103 1    
    82   41  104 1    
    83   41  105 1    
    84   42   43 am   BACKBONE|DICT|INTERRES
    85   42  106 1    
    86   43   44 2    
    87   43   45 1    
    88   45   46 1    
    89   45   49 1    
    90   45  107 1    
    91   46   47 1    
    92   46  108 1    
    93   46  109 1    
    94   47   48 1    
    95   48  110 1    
    96   48  111 1    
    97   49   50 am   BACKBONE|DICT|INTERRES
    98   49  112 1    
    99   50   51 2    
   100   50   52 1    
   101   52   53 1    
   102   52   54 1    
   103   52  113 1    
   104   53  114 1    
   105   53  115 1    
   106   53  116 1    
   107   54   55 am   BACKBONE|DICT|INTERRES
   108   54  117 1    
   109   55   56 2    
   110   55   57 1    
   111   57   58 1    
   112   57   59 1    
   113   57  118 1    
   114   58  119 1    
   115   58  120 1    
   116   58  121 1    
   117   59   60 am   BACKBONE|DICT|INTERRES
   118   59  122 1    
   119   60   61 2    
   120   60   62 1    
   121   62   63 1    
   122   62   64 1    
   123   62  123 1    
   124   63  124 1    
   125   63  125 1    
   126   63  126 1    
   127   64   65 am   BACKBONE|DICT|INTERRES
   128   64  127 1    
   129   65   66 2    
@<TRIPOS>SUBSTRUCTURE
     1 UNK         1 GROUP             0       ****    0 ROOT    
