@<TRIPOS>MOLECULE
3R135
127   129    1
SMALL
USER_CHARGES


@<TRIPOS>ATOM
      1 CA        -83.0428   25.8234  -69.2858 C.3       0 UNK        -0.1998 
      2 C         -83.3831   26.3904  -70.6558 C.2       0 UNK         0.4909 
      3 O         -84.4886   26.1729  -71.1525 O.2       0 UNK        -0.5240 
      4 N         -82.4399   27.1171  -71.2688 N.am      1 UNK        -0.4739 
      5 CA        -82.5845   27.7282  -72.5970 C.3       1 UNK         0.0864 
      6 C6        -81.5372   28.8433  -72.8322 C.3       11 UNK        -0.0881 
      7 S7        -81.7681   30.2868  -71.7320 S.3       11 UNK        -0.2682 
      8 C8        -80.6578   29.9556  -70.3201 C.3       11 UNK         0.0289 
      9 C9        -79.2281   29.6629  -70.7515 C.ar      11 UNK        -0.0687 
     10 C10       -78.7072   28.3725  -70.6162 C.ar      11 UNK        -0.0823 
     11 C11       -77.4201   28.0771  -71.0694 C.ar      11 UNK        -0.0830 
     12 C12       -76.6407   29.0928  -71.6311 C.ar      11 UNK        -0.1021 
     13 C13       -77.1456   30.3901  -71.7695 C.ar      11 UNK        -0.0753 
     14 C14       -78.4398   30.6696  -71.3188 C.ar      11 UNK        -0.0933 
     15 C15       -76.3372   31.4667  -72.4859 C.3       11 UNK         0.0166 
     16 S16       -74.5983   31.5427  -71.9452 S.3       11 UNK        -0.2615 
     17 C17       -73.8587   32.4631  -73.3382 C.3       11 UNK        -0.0865 
     18 CA        -73.3962   31.5391  -74.4977 C.3       10 UNK         0.0862 
     19 C         -72.8294   32.3848  -75.6709 C.2       10 UNK         0.5551 
     20 N         -73.6684   32.7612  -76.6261 N.am      10 UNK        -0.7319 
     21 O         -71.6527   32.7414  -75.6945 O.2       10 UNK        -0.5018 
     22 N         -72.4554   30.5133  -74.0251 N.am      10 UNK        -0.4509 
     23 C         -72.0089   29.4717  -74.7377 C.2       10 UNK         0.4899 
     24 O         -72.3527   29.2380  -75.8973 O.2       10 UNK        -0.4839 
     25 CA        -71.0103   28.5309  -74.0407 C.3       9 UNK         0.0222 
     26 CB        -71.0151   28.6448  -72.4968 C.3       9 UNK        -0.1966 
     27 N         -71.2805   27.1516  -74.4445 N.am      9 UNK        -0.4218 
     28 C         -70.4108   26.1368  -74.3634 C.2       9 UNK         0.5020 
     29 O         -69.2408   26.2643  -73.9987 O.2       9 UNK        -0.5274 
     30 CA        -70.9291   24.7378  -74.7244 C.3       8 UNK         0.0270 
     31 CB        -71.8106   24.1804  -73.5930 C.3       8 UNK        -0.1976 
     32 N         -71.6900   24.7381  -75.9732 N.am      8 UNK        -0.4313 
     33 C         -71.1980   24.3845  -77.1686 C.2       8 UNK         0.5041 
     34 O         -70.0234   24.0633  -77.3557 O.2       8 UNK        -0.5577 
     35 CA        -72.1732   24.3505  -78.3602 C.3       7 UNK         0.0284 
     36 CB        -72.5721   22.9014  -78.6851 C.3       7 UNK        -0.1958 
     37 N         -73.3850   25.1335  -78.1163 N.am      7 UNK        -0.4454 
     38 C         -73.4822   26.4543  -78.3211 C.2       7 UNK         0.5089 
     39 O         -72.5932   27.1315  -78.8376 O.2       7 UNK        -0.5125 
     40 CA        -74.7838   27.1417  -77.8662 C.3       6 UNK         0.0408 
     41 CB        -75.7168   27.3714  -79.0652 C.3       6 UNK        -0.1791 
     42 N         -75.5106   26.4131  -76.8201 N.am      6 UNK        -0.4762 
     43 C         -75.0482   26.1952  -75.5791 C.2       6 UNK         0.5007 
     44 O         -73.9346   26.5500  -75.1952 O.2       6 UNK        -0.5032 
     45 CA        -75.9477   25.4064  -74.6092 C.3       5 UNK         0.0783 
     46 C46       -76.8221   26.3870  -73.7996 C.3       11 UNK        -0.0857 
     47 S47       -77.5730   25.6129  -72.3284 S.3       11 UNK        -0.2512 
     48 C48       -76.8922   26.6505  -70.9900 C.3       11 UNK         0.0225 
     49 N         -76.7423   24.3776  -75.2873 N.am      5 UNK        -0.4615 
     50 C         -76.2229   23.3418  -75.9645 C.2       4 UNK         0.5053 
     51 O         -75.0128   23.1384  -76.0670 O.2       4 UNK        -0.5105 
     52 CA        -77.1998   22.3881  -76.6756 C.3       4 UNK         0.0263 
     53 CB        -77.4444   21.1387  -75.8147 C.3       4 UNK        -0.1981 
     54 N         -78.4886   22.9968  -77.0150 N.am      4 UNK        -0.4224 
     55 C         -78.6662   24.0350  -77.8459 C.2       3 UNK         0.4895 
     56 O         -77.7524   24.5851  -78.4605 O.2       3 UNK        -0.5091 
     57 CA        -80.1016   24.5760  -77.9840 C.3       3 UNK         0.0250 
     58 CB        -80.7863   23.9713  -79.2201 C.3       3 UNK        -0.1996 
     59 N         -80.9397   24.3448  -76.7993 N.am      3 UNK        -0.4254 
     60 C         -80.7048   24.8725  -75.5896 C.2       2 UNK         0.5004 
     61 O         -79.7393   25.5952  -75.3366 O.2       2 UNK        -0.5226 
     62 CA        -81.6674   24.4663  -74.4621 C.3       2 UNK         0.0269 
     63 CB        -81.1264   23.2292  -73.7259 C.3       2 UNK        -0.1926 
     64 N         -81.8575   25.5464  -73.4924 N.am      2 UNK        -0.4687 
     65 C         -82.5251   26.6842  -73.7343 C.2       1 UNK         0.5165 
     66 O         -83.0959   26.9225  -74.8003 O.2       1 UNK        -0.5079 
     67 H67       -82.0391   26.1022  -68.9655 H         1 UNK         0.0900 
     68 H68       -83.1029   24.7356  -69.3049 H         1 UNK         0.0900 
     69 H69       -83.7496   26.1908  -68.5423 H         1 UNK         0.0900 
     70 H70       -81.5542   27.2692  -70.8120 H         1 UNK         0.2959 
     71 H71       -83.5767   28.1829  -72.6499 H         1 UNK         0.1079 
     72 H72       -80.5235   28.4492  -72.7538 H         1 UNK         0.0837 
     73 H73       -81.6194   29.2229  -73.8529 H         1 UNK         0.0837 
     74 H74       -80.6599   30.8263  -69.6628 H         1 UNK         0.0685 
     75 H75       -81.0639   29.1335  -69.7297 H         1 UNK         0.0685 
     76 H76       -79.3116   27.5847  -70.1888 H         1 UNK         0.1434 
     77 H77       -75.6464   28.8683  -71.9920 H         1 UNK         0.1329 
     78 H78       -78.8525   31.6618  -71.4413 H         1 UNK         0.1335 
     79 H79       -76.3752   31.2572  -73.5555 H         1 UNK         0.0680 
     80 H80       -76.7883   32.4501  -72.3438 H         1 UNK         0.0680 
     81 H81       -73.0139   33.0372  -72.9523 H         1 UNK         0.1032 
     82 H82       -74.5798   33.2008  -73.6964 H         1 UNK         0.1032 
     83 H83       -74.2725   31.0044  -74.8700 H         1 UNK         0.0461 
     84 H84       -74.6370   32.4825  -76.6111 H         1 UNK         0.3453 
     85 H85       -73.3227   33.3254  -77.3866 H         1 UNK         0.3453 
     86 H86       -72.1212   30.6309  -73.0808 H         1 UNK         0.2984 
     87 H87       -70.0201   28.8090  -74.4067 H         1 UNK         0.0554 
     88 H88       -70.3157   27.9433  -72.0420 H         1 UNK         0.0847 
     89 H89       -72.0025   28.4391  -72.0809 H         1 UNK         0.0847 
     90 H90       -70.7102   29.6380  -72.1659 H         1 UNK         0.0847 
     91 H91       -72.2242   26.9805  -74.7932 H         1 UNK         0.3141 
     92 H92       -70.0640   24.0778  -74.8207 H         1 UNK         0.0743 
     93 H93       -72.6937   24.7963  -73.4203 H         1 UNK         0.0784 
     94 H94       -72.1488   23.1686  -73.8177 H         1 UNK         0.0784 
     95 H95       -71.2566   24.1362  -72.6543 H         1 UNK         0.0784 
     96 H96       -72.6502   25.0539  -75.9173 H         1 UNK         0.3213 
     97 H97       -71.6484   24.7587  -79.2269 H         1 UNK         0.0855 
     98 H98       -73.0797   22.4230  -77.8467 H         1 UNK         0.0814 
     99 H99       -71.6933   22.2989  -78.9188 H         1 UNK         0.0814 
    100 H100      -73.2344   22.8555  -79.5498 H         1 UNK         0.0814 
    101 H101      -74.1627   24.6501  -77.6851 H         1 UNK         0.3105 
    102 H102      -74.5089   28.1164  -77.4572 H         1 UNK         0.0547 
    103 H103      -75.2207   27.9605  -79.8378 H         1 UNK         0.0837 
    104 H104      -76.0253   26.4303  -79.5222 H         1 UNK         0.0837 
    105 H105      -76.6159   27.9140  -78.7731 H         1 UNK         0.0837 
    106 H106      -76.4156   26.0368  -77.0741 H         1 UNK         0.3020 
    107 H107      -75.2770   24.8929  -73.9164 H         1 UNK         0.1245 
    108 H108      -77.6144   26.8106  -74.4186 H         1 UNK         0.0781 
    109 H109      -76.2176   27.2341  -73.4805 H         1 UNK         0.0781 
    110 H110      -75.8020   26.6362  -71.0344 H         1 UNK         0.0836 
    111 H111      -77.1636   26.2127  -70.0283 H         1 UNK         0.0836 
    112 H112      -77.7469   24.5022  -75.2576 H         1 UNK         0.3022 
    113 H113      -76.7257   22.0766  -77.6088 H         1 UNK         0.0747 
    114 H114      -78.0602   20.4080  -76.3395 H         1 UNK         0.0793 
    115 H115      -76.5031   20.6461  -75.5659 H         1 UNK         0.0793 
    116 H116      -77.9407   21.3861  -74.8753 H         1 UNK         0.0793 
    117 H117      -79.3037   22.6122  -76.5613 H         1 UNK         0.3047 
    118 H118      -80.0252   25.6559  -78.1291 H         1 UNK         0.0822 
    119 H119      -81.7684   24.4142  -79.3871 H         1 UNK         0.0807 
    120 H120      -80.9147   22.8923  -79.1251 H         1 UNK         0.0807 
    121 H121      -80.1957   24.1509  -80.1198 H         1 UNK         0.0807 
    122 H122      -81.7469   23.7507  -76.9271 H         1 UNK         0.2946 
    123 H123      -82.6401   24.2242  -74.8967 H         1 UNK         0.1144 
    124 H124      -80.1515   23.4230  -73.2751 H         1 UNK         0.0793 
    125 H125      -81.0087   22.3855  -74.4071 H         1 UNK         0.0793 
    126 H126      -81.8045   22.9104  -72.9340 H         1 UNK         0.0793 
    127 H127      -81.3944   25.4454  -72.6017 H         1 UNK         0.2896 
@<TRIPOS>BOND
     1    1    2 1    
     2    1   67 1    
     3    1   68 1    
     4    1   69 1    
     5    2    3 2    
     6    2    4 am   BACKBONE|DICT|INTERRES
     7    4    5 1    
     8    4   70 1    
     9    5    6 1    
    10    5   65 1    
    11    5   71 1    
    12    6    7 1    
    13    6   72 1    
    14    6   73 1    
    15    7    8 1    
    16    8    9 1    
    17    8   74 1    
    18    8   75 1    
    19    9   10 ar   
    20    9   14 ar   
    21   10   11 ar   
    22   10   76 1    
    23   11   12 ar   
    24   11   48 1    
    25   12   13 ar   
    26   12   77 1    
    27   13   14 ar   
    28   13   15 1    
    29   14   78 1    
    30   15   16 1    
    31   15   79 1    
    32   15   80 1    
    33   16   17 1    
    34   17   18 1    
    35   17   81 1    
    36   17   82 1    
    37   18   19 1    
    38   18   22 1    
    39   18   83 1    
    40   19   20 am   BACKBONE|DICT|INTERRES
    41   19   21 2    
    42   20   84 1    
    43   20   85 1    
    44   22   23 am   BACKBONE|DICT|INTERRES
    45   22   86 1    
    46   23   24 2    
    47   23   25 1    
    48   25   26 1    
    49   25   27 1    
    50   25   87 1    
    51   26   88 1    
    52   26   89 1    
    53   26   90 1    
    54   27   28 am   BACKBONE|DICT|INTERRES
    55   27   91 1    
    56   28   29 2    
    57   28   30 1    
    58   30   31 1    
    59   30   32 1    
    60   30   92 1    
    61   31   93 1    
    62   31   94 1    
    63   31   95 1    
    64   32   33 am   BACKBONE|DICT|INTERRES
    65   32   96 1    
    66   33   34 2    
    67   33   35 1    
    68   35   36 1    
    69   35   37 1    
    70   35   97 1    
    71   36   98 1    
    72   36   99 1    
    73   36  100 1    
    74   37   38 am   BACKBONE|DICT|INTERRES
    75   37  101 1    
    76   38   39 2    
    77   38   40 1    
    78   40   41 1    
    79   40   42 1    
    80   40  102 1    
    81   41  103 1    
    82   41  104 1    
    83   41  105 1    
    84   42   43 am   BACKBONE|DICT|INTERRES
    85   42  106 1    
    86   43   44 2    
    87   43   45 1    
    88   45   46 1    
    89   45   49 1    
    90   45  107 1    
    91   46   47 1    
    92   46  108 1    
    93   46  109 1    
    94   47   48 1    
    95   48  110 1    
    96   48  111 1    
    97   49   50 am   BACKBONE|DICT|INTERRES
    98   49  112 1    
    99   50   51 2    
   100   50   52 1    
   101   52   53 1    
   102   52   54 1    
   103   52  113 1    
   104   53  114 1    
   105   53  115 1    
   106   53  116 1    
   107   54   55 am   BACKBONE|DICT|INTERRES
   108   54  117 1    
   109   55   56 2    
   110   55   57 1    
   111   57   58 1    
   112   57   59 1    
   113   57  118 1    
   114   58  119 1    
   115   58  120 1    
   116   58  121 1    
   117   59   60 am   BACKBONE|DICT|INTERRES
   118   59  122 1    
   119   60   61 2    
   120   60   62 1    
   121   62   63 1    
   122   62   64 1    
   123   62  123 1    
   124   63  124 1    
   125   63  125 1    
   126   63  126 1    
   127   64   65 am   BACKBONE|DICT|INTERRES
   128   64  127 1    
   129   65   66 2    
@<TRIPOS>SUBSTRUCTURE
     1 UNK         1 GROUP             0       ****    0 ROOT    
