@<TRIPOS>MOLECULE
3R135
127   129    1
SMALL
USER_CHARGES


@<TRIPOS>ATOM
      1 CA        -81.8441   22.9996  -70.7441 C.3       0 UNK        -0.1998 
      2 C         -80.5211   23.5890  -70.2600 C.2       0 UNK         0.4909 
      3 O         -79.8509   22.9672  -69.4374 O.2       0 UNK        -0.5240 
      4 N         -80.1061   24.7800  -70.7155 N.am      1 UNK        -0.4739 
      5 CA        -80.7465   25.6153  -71.7416 C.3       1 UNK         0.0864 
      6 C6        -80.2666   27.0890  -71.6361 C.3       11 UNK        -0.0881 
      7 S7        -81.6255   28.2713  -71.9176 S.3       11 UNK        -0.2682 
      8 C8        -81.0446   29.7113  -70.9618 C.3       11 UNK         0.0289 
      9 C9        -79.7729   30.2989  -71.5561 C.ar      11 UNK        -0.0687 
     10 C10       -79.8129   30.9027  -72.8157 C.ar      11 UNK        -0.0823 
     11 C11       -78.6459   31.3962  -73.4039 C.ar      11 UNK        -0.0830 
     12 C12       -77.4398   31.3247  -72.7033 C.ar      11 UNK        -0.1021 
     13 C13       -77.3853   30.7180  -71.4466 C.ar      11 UNK        -0.0753 
     14 C14       -78.5552   30.2101  -70.8723 C.ar      11 UNK        -0.0933 
     15 C15       -76.0448   30.5655  -70.7505 C.3       11 UNK         0.0166 
     16 S16       -75.2250   29.0468  -71.3205 S.3       11 UNK        -0.2615 
     17 C17       -73.4651   29.4521  -71.0389 C.3       11 UNK        -0.0865 
     18 CA        -72.4857   28.4985  -71.7750 C.3       10 UNK         0.0862 
     19 C         -72.4982   27.0684  -71.1656 C.2       10 UNK         0.5551 
     20 N         -73.0074   26.0551  -71.8562 N.am      10 UNK        -0.7319 
     21 O         -72.0161   26.8741  -70.0522 O.2       10 UNK        -0.5018 
     22 N         -72.6892   28.5120  -73.2320 N.am      10 UNK        -0.4509 
     23 C         -71.9152   29.1278  -74.1303 C.2       10 UNK         0.4899 
     24 O         -70.9584   29.8473  -73.8365 O.2       10 UNK        -0.4839 
     25 CA        -72.2749   28.8772  -75.6104 C.3       9 UNK         0.0222 
     26 CB        -71.2992   29.5557  -76.5949 C.3       9 UNK        -0.1966 
     27 N         -72.4227   27.4489  -75.9307 N.am      9 UNK        -0.4218 
     28 C         -71.5079   26.4804  -75.7632 C.2       9 UNK         0.5020 
     29 O         -70.3632   26.6760  -75.3520 O.2       9 UNK        -0.5274 
     30 CA        -71.9273   25.0375  -76.0993 C.3       8 UNK         0.0270 
     31 CB        -72.3381   24.2788  -74.8301 C.3       8 UNK        -0.1976 
     32 N         -72.9959   24.9318  -77.0995 N.am      8 UNK        -0.4313 
     33 C         -72.7760   25.0406  -78.4173 C.2       8 UNK         0.5041 
     34 O         -71.6897   25.3546  -78.9060 O.2       8 UNK        -0.5577 
     35 CA        -73.9479   24.7231  -79.3525 C.3       7 UNK         0.0284 
     36 CB        -74.2893   23.2221  -79.3280 C.3       7 UNK        -0.1958 
     37 N         -75.1302   25.5086  -78.9997 N.am      7 UNK        -0.4454 
     38 C         -75.6562   26.4612  -79.7794 C.2       7 UNK         0.5089 
     39 O         -75.2033   26.7761  -80.8811 O.2       7 UNK        -0.5125 
     40 CA        -76.9106   27.1881  -79.2693 C.3       6 UNK         0.0408 
     41 CB        -78.1839   26.5091  -79.7979 C.3       6 UNK        -0.1791 
     42 N         -77.0031   27.3298  -77.8148 N.am      6 UNK        -0.4762 
     43 C         -76.1952   28.1026  -77.0733 C.2       6 UNK         0.5007 
     44 O         -75.1455   28.5952  -77.4845 O.2       6 UNK        -0.5032 
     45 CA        -76.6635   28.3876  -75.6356 C.3       5 UNK         0.0783 
     46 C46       -77.9423   29.2669  -75.6330 C.3       11 UNK        -0.0857 
     47 S47       -77.5487   31.0278  -75.9450 S.3       11 UNK        -0.2512 
     48 C48       -78.6791   31.9306  -74.8284 C.3       11 UNK         0.0225 
     49 N         -76.8658   27.1255  -74.9287 N.am      5 UNK        -0.4615 
     50 C         -75.9047   26.4625  -74.2718 C.2       4 UNK         0.5053 
     51 O         -74.7651   26.8905  -74.1010 O.2       4 UNK        -0.5105 
     52 CA        -76.2454   25.0506  -73.7649 C.3       4 UNK         0.0263 
     53 CB        -76.8150   25.1144  -72.3413 C.3       4 UNK        -0.1981 
     54 N         -77.1625   24.3373  -74.6570 N.am      4 UNK        -0.4224 
     55 C         -76.8886   24.0616  -75.9428 C.2       3 UNK         0.4895 
     56 O         -75.7990   24.2944  -76.4718 O.2       3 UNK        -0.5091 
     57 CA        -78.0261   23.4950  -76.8102 C.3       3 UNK         0.0250 
     58 CB        -77.9100   21.9665  -76.9074 C.3       3 UNK        -0.1996 
     59 N         -79.3731   23.8540  -76.3523 N.am      3 UNK        -0.4254 
     60 C         -79.8487   25.0976  -76.1830 C.2       2 UNK         0.5004 
     61 O         -79.2045   26.1176  -76.4351 O.2       2 UNK        -0.5226 
     62 CA        -81.2574   25.2326  -75.5715 C.3       2 UNK         0.0269 
     63 CB        -82.1311   23.9689  -75.7417 C.3       2 UNK        -0.1926 
     64 N         -81.2212   25.6307  -74.1554 N.am      2 UNK        -0.4687 
     65 C         -80.5411   25.0374  -73.1621 C.2       1 UNK         0.5165 
     66 O         -79.7826   24.0786  -73.3330 O.2       1 UNK        -0.5079 
     67 H67       -82.6733   23.6779  -70.5467 H         1 UNK         0.0900 
     68 H68       -82.0558   22.0652  -70.2246 H         1 UNK         0.0900 
     69 H69       -81.8089   22.7805  -71.8106 H         1 UNK         0.0900 
     70 H70       -79.2160   25.1205  -70.3837 H         1 UNK         0.2959 
     71 H71       -81.8200   25.5896  -71.5460 H         1 UNK         0.1079 
     72 H72       -79.8698   27.2862  -70.6386 H         1 UNK         0.0837 
     73 H73       -79.4490   27.3164  -72.3237 H         1 UNK         0.0837 
     74 H74       -81.8250   30.4735  -70.9604 H         1 UNK         0.0685 
     75 H75       -80.8956   29.4223  -69.9202 H         1 UNK         0.0685 
     76 H76       -80.7499   30.9441  -73.3544 H         1 UNK         0.1434 
     77 H77       -76.5310   31.6896  -73.1626 H         1 UNK         0.1329 
     78 H78       -78.5110   29.7243  -69.9071 H         1 UNK         0.1335 
     79 H79       -75.4211   31.4349  -70.9636 H         1 UNK         0.0680 
     80 H80       -76.1708   30.5285  -69.6674 H         1 UNK         0.0680 
     81 H81       -73.2691   29.4536  -69.9650 H         1 UNK         0.1032 
     82 H82       -73.2814   30.4732  -71.3757 H         1 UNK         0.1032 
     83 H83       -71.4782   28.8660  -71.5714 H         1 UNK         0.0461 
     84 H84       -72.9976   25.1331  -71.4518 H         1 UNK         0.3453 
     85 H85       -73.4731   26.2245  -72.7373 H         1 UNK         0.3453 
     86 H86       -73.4697   27.9489  -73.5669 H         1 UNK         0.2984 
     87 H87       -73.2556   29.3297  -75.7588 H         1 UNK         0.0554 
     88 H88       -71.6105   29.4008  -77.6280 H         1 UNK         0.0847 
     89 H89       -70.2838   29.1727  -76.4890 H         1 UNK         0.0847 
     90 H90       -71.2603   30.6325  -76.4267 H         1 UNK         0.0847 
     91 H91       -73.3407   27.1726  -76.2505 H         1 UNK         0.3141 
     92 H92       -71.0413   24.5375  -76.4975 H         1 UNK         0.0743 
     93 H93       -73.2182   24.7212  -74.3728 H         1 UNK         0.0784 
     94 H94       -72.5578   23.2325  -75.0431 H         1 UNK         0.0784 
     95 H95       -71.5403   24.2995  -74.0862 H         1 UNK         0.0784 
     96 H96       -73.9209   24.6606  -76.7743 H         1 UNK         0.3213 
     97 H97       -73.6184   24.9605  -80.3664 H         1 UNK         0.0855 
     98 H98       -74.6113   22.8848  -78.3430 H         1 UNK         0.0814 
     99 H99       -73.4219   22.6228  -79.6078 H         1 UNK         0.0814 
    100 H100      -75.0850   22.9884  -80.0353 H         1 UNK         0.0814 
    101 H101      -75.5512   25.3161  -78.0960 H         1 UNK         0.3105 
    102 H102      -76.8817   28.1977  -79.6851 H         1 UNK         0.0547 
    103 H103      -78.1697   26.4484  -80.8870 H         1 UNK         0.0837 
    104 H104      -78.2917   25.4939  -79.4188 H         1 UNK         0.0837 
    105 H105      -79.0775   27.0670  -79.5177 H         1 UNK         0.0837 
    106 H106      -77.8313   26.9354  -77.3723 H         1 UNK         0.3020 
    107 H107      -75.8700   28.9408  -75.1264 H         1 UNK         0.1245 
    108 H108      -78.4363   29.1662  -74.6677 H         1 UNK         0.0781 
    109 H109      -78.6802   28.9302  -76.3636 H         1 UNK         0.0781 
    110 H110      -79.6881   31.8770  -75.2402 H         1 UNK         0.0836 
    111 H111      -78.4050   32.9863  -74.8215 H         1 UNK         0.0836 
    112 H112      -77.7529   26.6650  -75.0957 H         1 UNK         0.3022 
    113 H113      -75.3245   24.4696  -73.7252 H         1 UNK         0.0747 
    114 H114      -77.0703   24.1229  -71.9667 H         1 UNK         0.0793 
    115 H115      -76.0881   25.5476  -71.6525 H         1 UNK         0.0793 
    116 H116      -77.7084   25.7334  -72.2954 H         1 UNK         0.0793 
    117 H117      -78.0861   24.1202  -74.2903 H         1 UNK         0.3047 
    118 H118      -77.8989   23.9071  -77.8114 H         1 UNK         0.0822 
    119 H119      -78.6438   21.5553  -77.6008 H         1 UNK         0.0807 
    120 H120      -78.0568   21.4881  -75.9381 H         1 UNK         0.0807 
    121 H121      -76.9242   21.6720  -77.2708 H         1 UNK         0.0807 
    122 H122      -79.9678   23.0874  -76.0726 H         1 UNK         0.2946 
    123 H123      -81.7412   26.0449  -76.1171 H         1 UNK         0.1144 
    124 H124      -82.1740   23.6550  -76.7858 H         1 UNK         0.0793 
    125 H125      -83.1569   24.1623  -75.4275 H         1 UNK         0.0793 
    126 H126      -81.7653   23.1263  -75.1538 H         1 UNK         0.0793 
    127 H127      -81.7701   26.4483  -73.9226 H         1 UNK         0.2896 
@<TRIPOS>BOND
     1    1    2 1    
     2    1   67 1    
     3    1   68 1    
     4    1   69 1    
     5    2    3 2    
     6    2    4 am   BACKBONE|DICT|INTERRES
     7    4    5 1    
     8    4   70 1    
     9    5    6 1    
    10    5   65 1    
    11    5   71 1    
    12    6    7 1    
    13    6   72 1    
    14    6   73 1    
    15    7    8 1    
    16    8    9 1    
    17    8   74 1    
    18    8   75 1    
    19    9   10 ar   
    20    9   14 ar   
    21   10   11 ar   
    22   10   76 1    
    23   11   12 ar   
    24   11   48 1    
    25   12   13 ar   
    26   12   77 1    
    27   13   14 ar   
    28   13   15 1    
    29   14   78 1    
    30   15   16 1    
    31   15   79 1    
    32   15   80 1    
    33   16   17 1    
    34   17   18 1    
    35   17   81 1    
    36   17   82 1    
    37   18   19 1    
    38   18   22 1    
    39   18   83 1    
    40   19   20 am   BACKBONE|DICT|INTERRES
    41   19   21 2    
    42   20   84 1    
    43   20   85 1    
    44   22   23 am   BACKBONE|DICT|INTERRES
    45   22   86 1    
    46   23   24 2    
    47   23   25 1    
    48   25   26 1    
    49   25   27 1    
    50   25   87 1    
    51   26   88 1    
    52   26   89 1    
    53   26   90 1    
    54   27   28 am   BACKBONE|DICT|INTERRES
    55   27   91 1    
    56   28   29 2    
    57   28   30 1    
    58   30   31 1    
    59   30   32 1    
    60   30   92 1    
    61   31   93 1    
    62   31   94 1    
    63   31   95 1    
    64   32   33 am   BACKBONE|DICT|INTERRES
    65   32   96 1    
    66   33   34 2    
    67   33   35 1    
    68   35   36 1    
    69   35   37 1    
    70   35   97 1    
    71   36   98 1    
    72   36   99 1    
    73   36  100 1    
    74   37   38 am   BACKBONE|DICT|INTERRES
    75   37  101 1    
    76   38   39 2    
    77   38   40 1    
    78   40   41 1    
    79   40   42 1    
    80   40  102 1    
    81   41  103 1    
    82   41  104 1    
    83   41  105 1    
    84   42   43 am   BACKBONE|DICT|INTERRES
    85   42  106 1    
    86   43   44 2    
    87   43   45 1    
    88   45   46 1    
    89   45   49 1    
    90   45  107 1    
    91   46   47 1    
    92   46  108 1    
    93   46  109 1    
    94   47   48 1    
    95   48  110 1    
    96   48  111 1    
    97   49   50 am   BACKBONE|DICT|INTERRES
    98   49  112 1    
    99   50   51 2    
   100   50   52 1    
   101   52   53 1    
   102   52   54 1    
   103   52  113 1    
   104   53  114 1    
   105   53  115 1    
   106   53  116 1    
   107   54   55 am   BACKBONE|DICT|INTERRES
   108   54  117 1    
   109   55   56 2    
   110   55   57 1    
   111   57   58 1    
   112   57   59 1    
   113   57  118 1    
   114   58  119 1    
   115   58  120 1    
   116   58  121 1    
   117   59   60 am   BACKBONE|DICT|INTERRES
   118   59  122 1    
   119   60   61 2    
   120   60   62 1    
   121   62   63 1    
   122   62   64 1    
   123   62  123 1    
   124   63  124 1    
   125   63  125 1    
   126   63  126 1    
   127   64   65 am   BACKBONE|DICT|INTERRES
   128   64  127 1    
   129   65   66 2    
@<TRIPOS>SUBSTRUCTURE
     1 UNK         1 GROUP             0       ****    0 ROOT    
