@<TRIPOS>MOLECULE
3R135
127   129    1
SMALL
USER_CHARGES


@<TRIPOS>ATOM
      1 CA        -79.2820   29.4972  -77.5705 C.3       0 UNK        -0.1998 
      2 C         -79.3165   28.5816  -76.3564 C.2       0 UNK         0.4909 
      3 O         -78.5063   27.6577  -76.2624 O.2       0 UNK        -0.5240 
      4 N         -80.2473   28.8387  -75.4302 N.am      1 UNK        -0.4739 
      5 CA        -80.4837   28.0278  -74.2322 C.3       1 UNK         0.0864 
      6 C6        -81.3530   28.7709  -73.1825 C.3       11 UNK        -0.0881 
      7 S7        -80.7648   30.4515  -72.7745 S.3       11 UNK        -0.2682 
      8 C8        -79.8430   30.1799  -71.2286 C.3       11 UNK         0.0289 
      9 C9        -78.4890   29.5398  -71.4912 C.ar      11 UNK        -0.0687 
     10 C10       -78.2631   28.1974  -71.1741 C.ar      11 UNK        -0.0823 
     11 C11       -77.0212   27.6087  -71.4329 C.ar      11 UNK        -0.0830 
     12 C12       -75.9976   28.3770  -71.9948 C.ar      11 UNK        -0.1021 
     13 C13       -76.2094   29.7227  -72.3065 C.ar      11 UNK        -0.0753 
     14 C14       -77.4574   30.2977  -72.0532 C.ar      11 UNK        -0.0933 
     15 C15       -75.1039   30.5531  -72.9401 C.3       11 UNK         0.0166 
     16 S16       -74.2613   31.6105  -71.7228 S.3       11 UNK        -0.2615 
     17 C17       -73.1223   30.4270  -70.9264 C.3       11 UNK        -0.0865 
     18 CA        -71.6341   30.7207  -71.2522 C.3       10 UNK         0.0862 
     19 C         -70.7080   29.8134  -70.4041 C.2       10 UNK         0.5551 
     20 N         -70.3023   30.2676  -69.2268 N.am      10 UNK        -0.7319 
     21 O         -70.3840   28.6903  -70.7877 O.2       10 UNK        -0.5018 
     22 N         -71.3336   30.5346  -72.6788 N.am      10 UNK        -0.4509 
     23 C         -70.8920   31.4818  -73.5153 C.2       10 UNK         0.4899 
     24 O         -70.7632   32.6671  -73.2066 O.2       10 UNK        -0.4839 
     25 CA        -70.4960   31.0415  -74.9395 C.3       9 UNK         0.0222 
     26 CB        -68.9650   30.9795  -75.0708 C.3       9 UNK        -0.1966 
     27 N         -71.0628   29.7504  -75.3455 N.am      9 UNK        -0.4218 
     28 C         -72.3476   29.5552  -75.6691 C.2       9 UNK         0.5020 
     29 O         -73.1932   30.4530  -75.6811 O.2       9 UNK        -0.5274 
     30 CA        -72.7485   28.1015  -75.9877 C.3       8 UNK         0.0270 
     31 CB        -72.7969   27.2606  -74.6991 C.3       8 UNK        -0.1976 
     32 N         -74.0501   28.0143  -76.6532 N.am      8 UNK        -0.4313 
     33 C         -74.3137   28.4444  -77.8934 C.2       8 UNK         0.5041 
     34 O         -73.4553   28.8653  -78.6732 O.2       8 UNK        -0.5577 
     35 CA        -75.7944   28.3904  -78.3143 C.3       7 UNK         0.0284 
     36 CB        -76.0381   28.8805  -79.7584 C.3       7 UNK        -0.1958 
     37 N         -76.4004   27.0706  -78.0931 N.am      7 UNK        -0.4454 
     38 C         -76.0404   25.9124  -78.6669 C.2       7 UNK         0.5089 
     39 O         -75.1301   25.8046  -79.4911 O.2       7 UNK        -0.5125 
     40 CA        -76.8450   24.6651  -78.2454 C.3       6 UNK         0.0408 
     41 CB        -76.2979   23.3647  -78.8698 C.3       6 UNK        -0.1791 
     42 N         -76.9740   24.5066  -76.7925 N.am      6 UNK        -0.4762 
     43 C         -75.9861   24.4568  -75.8834 C.2       6 UNK         0.5007 
     44 O         -74.7917   24.5987  -76.1424 O.2       6 UNK        -0.5032 
     45 CA        -76.4173   24.1568  -74.4389 C.3       5 UNK         0.0783 
     46 C46       -77.1522   25.3741  -73.8228 C.3       11 UNK        -0.0857 
     47 S47       -77.8029   25.0460  -72.1488 S.3       11 UNK        -0.2512 
     48 C48       -76.7850   26.1402  -71.1104 C.3       11 UNK         0.0225 
     49 N         -77.2229   22.9335  -74.4260 N.am      5 UNK        -0.4615 
     50 C         -76.7255   21.6906  -74.3693 C.2       4 UNK         0.5053 
     51 O         -75.5232   21.4423  -74.2764 O.2       4 UNK        -0.5105 
     52 CA        -77.7260   20.5185  -74.4001 C.3       4 UNK         0.0263 
     53 CB        -77.9711   19.9923  -72.9763 C.3       4 UNK        -0.1981 
     54 N         -79.0121   20.8756  -75.0013 N.am      4 UNK        -0.4224 
     55 C         -79.2306   21.0168  -76.3167 C.2       3 UNK         0.4895 
     56 O         -78.4015   20.7389  -77.1825 O.2       3 UNK        -0.5091 
     57 CA        -80.5982   21.5933  -76.7367 C.3       3 UNK         0.0250 
     58 CB        -81.5709   20.4604  -77.1016 C.3       3 UNK        -0.1996 
     59 N         -81.2156   22.4580  -75.7203 N.am      3 UNK        -0.4254 
     60 C         -80.6746   23.5971  -75.2665 C.2       2 UNK         0.5004 
     61 O         -79.6061   24.0497  -75.6838 O.2       2 UNK        -0.5226 
     62 CA        -81.4016   24.2856  -74.0986 C.3       2 UNK         0.0269 
     63 CB        -81.2536   23.4583  -72.8091 C.3       2 UNK        -0.1926 
     64 N         -80.8773   25.6317  -73.8523 N.am      2 UNK        -0.4687 
     65 C         -81.1600   26.6943  -74.6152 C.2       1 UNK         0.5165 
     66 O         -81.9637   26.6620  -75.5522 O.2       1 UNK        -0.5079 
     67 H67       -80.1994   30.0783  -77.6639 H         1 UNK         0.0900 
     68 H68       -79.1632   28.9101  -78.4807 H         1 UNK         0.0900 
     69 H69       -78.4463   30.1918  -77.4963 H         1 UNK         0.0900 
     70 H70       -80.8859   29.6094  -75.5624 H         1 UNK         0.2959 
     71 H71       -79.5111   27.8058  -73.7869 H         1 UNK         0.1079 
     72 H72       -81.4240   28.1843  -72.2647 H         1 UNK         0.0837 
     73 H73       -82.3774   28.8753  -73.5464 H         1 UNK         0.0837 
     74 H74       -79.6923   31.1425  -70.7376 H         1 UNK         0.0685 
     75 H75       -80.4388   29.5783  -70.5405 H         1 UNK         0.0685 
     76 H76       -79.0556   27.6039  -70.7389 H         1 UNK         0.1434 
     77 H77       -75.0372   27.9242  -72.1943 H         1 UNK         0.1329 
     78 H78       -77.6289   31.3366  -72.2999 H         1 UNK         0.1335 
     79 H79       -74.3736   29.9078  -73.4262 H         1 UNK         0.0680 
     80 H80       -75.5242   31.1828  -73.7257 H         1 UNK         0.0680 
     81 H81       -73.3812   29.4051  -71.2057 H         1 UNK         0.1032 
     82 H82       -73.2951   30.4928  -69.8504 H         1 UNK         0.1032 
     83 H83       -71.4258   31.7536  -70.9653 H         1 UNK         0.0461 
     84 H84       -70.5700   31.1832  -68.8996 H         1 UNK         0.3453 
     85 H85       -69.7100   29.6857  -68.6549 H         1 UNK         0.3453 
     86 H86       -71.3398   29.5768  -72.9959 H         1 UNK         0.2984 
     87 H87       -70.8626   31.8056  -75.6283 H         1 UNK         0.0554 
     88 H88       -68.6619   30.7470  -76.0919 H         1 UNK         0.0847 
     89 H89       -68.5316   30.2275  -74.4104 H         1 UNK         0.0847 
     90 H90       -68.5118   31.9378  -74.8126 H         1 UNK         0.0847 
     91 H91       -70.4303   28.9626  -75.3628 H         1 UNK         0.3141 
     92 H92       -71.9971   27.6787  -76.6579 H         1 UNK         0.0743 
     93 H93       -73.5512   27.6291  -74.0048 H         1 UNK         0.0784 
     94 H94       -73.0248   26.2173  -74.9167 H         1 UNK         0.0784 
     95 H95       -71.8395   27.2716  -74.1773 H         1 UNK         0.0784 
     96 H96       -74.8205   27.6788  -76.0953 H         1 UNK         0.3213 
     97 H97       -76.3132   29.0790  -77.6470 H         1 UNK         0.0855 
     98 H98       -75.5088   28.2702  -80.4905 H         1 UNK         0.0814 
     99 H99       -75.6915   29.9070  -79.8832 H         1 UNK         0.0814 
    100 H100      -77.0978   28.8639  -80.0112 H         1 UNK         0.0814 
    101 H101      -77.1615   27.0542  -77.4143 H         1 UNK         0.3105 
    102 H102      -77.8570   24.8121  -78.6252 H         1 UNK         0.0547 
    103 H103      -76.2875   23.4258  -79.9586 H         1 UNK         0.0837 
    104 H104      -75.2776   23.1591  -78.5444 H         1 UNK         0.0837 
    105 H105      -76.9136   22.5068  -78.6018 H         1 UNK         0.0837 
    106 H106      -77.9282   24.3981  -76.4506 H         1 UNK         0.3020 
    107 H107      -75.5109   23.9862  -73.8528 H         1 UNK         0.1245 
    108 H108      -77.9950   25.6794  -74.4433 H         1 UNK         0.0781 
    109 H109      -76.4836   26.2352  -73.7983 H         1 UNK         0.0781 
    110 H110      -75.7340   25.8729  -71.2313 H         1 UNK         0.0836 
    111 H111      -77.0281   25.9605  -70.0623 H         1 UNK         0.0836 
    112 H112      -78.2144   23.0668  -74.5779 H         1 UNK         0.3022 
    113 H113      -77.2766   19.7163  -74.9895 H         1 UNK         0.0747 
    114 H114      -78.6288   19.1228  -72.9815 H         1 UNK         0.0793 
    115 H115      -77.0349   19.6850  -72.5079 H         1 UNK         0.0793 
    116 H116      -78.4210   20.7522  -72.3358 H         1 UNK         0.0793 
    117 H117      -79.7644   21.0980  -74.3667 H         1 UNK         0.3047 
    118 H118      -80.4298   22.2015  -77.6282 H         1 UNK         0.0822 
    119 H119      -82.5107   20.8530  -77.4902 H         1 UNK         0.0807 
    120 H120      -81.7988   19.8295  -76.2414 H         1 UNK         0.0807 
    121 H121      -81.1476   19.8168  -77.8743 H         1 UNK         0.0807 
    122 H122      -82.0921   22.1413  -75.3300 H         1 UNK         0.2946 
    123 H123      -82.4618   24.3613  -74.3520 H         1 UNK         0.1144 
    124 H124      -81.7313   23.9541  -71.9638 H         1 UNK         0.0793 
    125 H125      -80.2076   23.2920  -72.5498 H         1 UNK         0.0793 
    126 H126      -81.7233   22.4792  -72.9089 H         1 UNK         0.0793 
    127 H127      -80.1826   25.7149  -73.1232 H         1 UNK         0.2896 
@<TRIPOS>BOND
     1    1    2 1    
     2    1   67 1    
     3    1   68 1    
     4    1   69 1    
     5    2    3 2    
     6    2    4 am   BACKBONE|DICT|INTERRES
     7    4    5 1    
     8    4   70 1    
     9    5    6 1    
    10    5   65 1    
    11    5   71 1    
    12    6    7 1    
    13    6   72 1    
    14    6   73 1    
    15    7    8 1    
    16    8    9 1    
    17    8   74 1    
    18    8   75 1    
    19    9   10 ar   
    20    9   14 ar   
    21   10   11 ar   
    22   10   76 1    
    23   11   12 ar   
    24   11   48 1    
    25   12   13 ar   
    26   12   77 1    
    27   13   14 ar   
    28   13   15 1    
    29   14   78 1    
    30   15   16 1    
    31   15   79 1    
    32   15   80 1    
    33   16   17 1    
    34   17   18 1    
    35   17   81 1    
    36   17   82 1    
    37   18   19 1    
    38   18   22 1    
    39   18   83 1    
    40   19   20 am   BACKBONE|DICT|INTERRES
    41   19   21 2    
    42   20   84 1    
    43   20   85 1    
    44   22   23 am   BACKBONE|DICT|INTERRES
    45   22   86 1    
    46   23   24 2    
    47   23   25 1    
    48   25   26 1    
    49   25   27 1    
    50   25   87 1    
    51   26   88 1    
    52   26   89 1    
    53   26   90 1    
    54   27   28 am   BACKBONE|DICT|INTERRES
    55   27   91 1    
    56   28   29 2    
    57   28   30 1    
    58   30   31 1    
    59   30   32 1    
    60   30   92 1    
    61   31   93 1    
    62   31   94 1    
    63   31   95 1    
    64   32   33 am   BACKBONE|DICT|INTERRES
    65   32   96 1    
    66   33   34 2    
    67   33   35 1    
    68   35   36 1    
    69   35   37 1    
    70   35   97 1    
    71   36   98 1    
    72   36   99 1    
    73   36  100 1    
    74   37   38 am   BACKBONE|DICT|INTERRES
    75   37  101 1    
    76   38   39 2    
    77   38   40 1    
    78   40   41 1    
    79   40   42 1    
    80   40  102 1    
    81   41  103 1    
    82   41  104 1    
    83   41  105 1    
    84   42   43 am   BACKBONE|DICT|INTERRES
    85   42  106 1    
    86   43   44 2    
    87   43   45 1    
    88   45   46 1    
    89   45   49 1    
    90   45  107 1    
    91   46   47 1    
    92   46  108 1    
    93   46  109 1    
    94   47   48 1    
    95   48  110 1    
    96   48  111 1    
    97   49   50 am   BACKBONE|DICT|INTERRES
    98   49  112 1    
    99   50   51 2    
   100   50   52 1    
   101   52   53 1    
   102   52   54 1    
   103   52  113 1    
   104   53  114 1    
   105   53  115 1    
   106   53  116 1    
   107   54   55 am   BACKBONE|DICT|INTERRES
   108   54  117 1    
   109   55   56 2    
   110   55   57 1    
   111   57   58 1    
   112   57   59 1    
   113   57  118 1    
   114   58  119 1    
   115   58  120 1    
   116   58  121 1    
   117   59   60 am   BACKBONE|DICT|INTERRES
   118   59  122 1    
   119   60   61 2    
   120   60   62 1    
   121   62   63 1    
   122   62   64 1    
   123   62  123 1    
   124   63  124 1    
   125   63  125 1    
   126   63  126 1    
   127   64   65 am   BACKBONE|DICT|INTERRES
   128   64  127 1    
   129   65   66 2    
@<TRIPOS>SUBSTRUCTURE
     1 UNK         1 GROUP             0       ****    0 ROOT    
