@<TRIPOS>MOLECULE
3R135
127   129    1
SMALL
USER_CHARGES


@<TRIPOS>ATOM
      1 CA        -84.1558   31.5798  -73.8418 C.3       0 UNK        -0.1998 
      2 C         -82.8552   31.1961  -74.5311 C.2       0 UNK         0.4909 
      3 O         -82.4792   31.8213  -75.5229 O.2       0 UNK        -0.5240 
      4 N         -82.1657   30.1699  -74.0156 N.am      1 UNK        -0.4739 
      5 CA        -80.9023   29.6506  -74.5574 C.3       1 UNK         0.0864 
      6 C6        -80.0996   28.8777  -73.4810 C.3       11 UNK        -0.0881 
      7 S7        -80.9792   27.4380  -72.7730 S.3       11 UNK        -0.2682 
      8 C8        -80.4260   27.4746  -71.0387 C.3       11 UNK         0.0289 
      9 C9        -79.0154   26.9250  -70.8562 C.ar      11 UNK        -0.0687 
     10 C10       -78.8201   25.6274  -70.3691 C.ar      11 UNK        -0.0823 
     11 C11       -77.5300   25.1493  -70.1124 C.ar      11 UNK        -0.0830 
     12 C12       -76.4303   25.9726  -70.3687 C.ar      11 UNK        -0.1021 
     13 C13       -76.6091   27.2542  -70.8942 C.ar      11 UNK        -0.0753 
     14 C14       -77.9031   27.7298  -71.1224 C.ar      11 UNK        -0.0933 
     15 C15       -75.4041   28.1314  -71.1932 C.3       11 UNK         0.0166 
     16 S16       -74.4025   27.4353  -72.5414 S.3       11 UNK        -0.2615 
     17 C17       -73.3195   28.8519  -72.9276 C.3       11 UNK        -0.0865 
     18 CA        -73.7450   29.5823  -74.2249 C.3       10 UNK         0.0862 
     19 C         -72.8854   30.8586  -74.4353 C.2       10 UNK         0.5551 
     20 N         -71.7202   30.7595  -75.0615 N.am      10 UNK        -0.7319 
     21 O         -73.2809   31.9459  -74.0223 O.2       10 UNK        -0.5018 
     22 N         -73.7551   28.6810  -75.3876 N.am      10 UNK        -0.4509 
     23 C         -74.3269   28.9667  -76.5636 C.2       10 UNK         0.4899 
     24 O         -74.9487   30.0053  -76.7951 O.2       10 UNK        -0.4839 
     25 CA        -74.1716   27.8944  -77.6566 C.3       9 UNK         0.0222 
     26 CB        -74.8888   28.2491  -78.9769 C.3       9 UNK        -0.1966 
     27 N         -72.7612   27.5602  -77.8779 N.am      9 UNK        -0.4218 
     28 C         -71.7862   28.3638  -78.3320 C.2       9 UNK         0.5020 
     29 O         -71.9702   29.5092  -78.7474 O.2       9 UNK        -0.5274 
     30 CA        -70.3590   27.7732  -78.3220 C.3       8 UNK         0.0270 
     31 CB        -69.2613   28.8579  -78.3852 C.3       8 UNK        -0.1976 
     32 N         -70.1171   26.8503  -77.2022 N.am      8 UNK        -0.4313 
     33 C         -70.1844   27.1349  -75.8922 C.2       8 UNK         0.5041 
     34 O         -70.4448   28.2517  -75.4416 O.2       8 UNK        -0.5577 
     35 CA        -69.9771   25.9406  -74.9391 C.3       7 UNK         0.0284 
     36 CB        -70.1639   26.3095  -73.4528 C.3       7 UNK        -0.1958 
     37 N         -70.8176   24.7812  -75.2741 N.am      7 UNK        -0.4454 
     38 C         -72.1516   24.7638  -75.4294 C.2       7 UNK         0.5089 
     39 O         -72.8607   25.7721  -75.4023 O.2       7 UNK        -0.5125 
     40 CA        -72.8173   23.4008  -75.7078 C.3       6 UNK         0.0408 
     41 CB        -71.8732   22.1823  -75.5840 C.3       6 UNK        -0.1791 
     42 N         -74.0195   23.2159  -74.8895 N.am      6 UNK        -0.4762 
     43 C         -74.0988   23.1655  -73.5512 C.2       6 UNK         0.5007 
     44 O         -73.1216   23.2221  -72.8018 O.2       6 UNK        -0.5032 
     45 CA        -75.5203   23.0324  -72.9627 C.3       5 UNK         0.0783 
     46 C46       -75.5142   22.7276  -71.4427 C.3       11 UNK        -0.0857 
     47 S47       -77.1956   22.4622  -70.7783 S.3       11 UNK        -0.2512 
     48 C48       -77.3270   23.7646  -69.5116 C.3       11 UNK         0.0225 
     49 N         -76.3321   24.2097  -73.2862 N.am      5 UNK        -0.4615 
     50 C         -76.9471   24.4132  -74.4545 C.2       4 UNK         0.5053 
     51 O         -76.8288   23.6660  -75.4300 O.2       4 UNK        -0.5105 
     52 CA        -77.8280   25.6673  -74.5638 C.3       4 UNK         0.0263 
     53 CB        -77.0991   26.7494  -75.3769 C.3       4 UNK        -0.1981 
     54 N         -79.1165   25.3752  -75.1977 N.am      4 UNK        -0.4224 
     55 C         -80.0245   24.4957  -74.7455 C.2       3 UNK         0.4895 
     56 O         -79.9052   23.8579  -73.6981 O.2       3 UNK        -0.5091 
     57 CA        -81.2891   24.3287  -75.6025 C.3       3 UNK         0.0250 
     58 CB        -82.3790   23.4835  -74.9149 C.3       3 UNK        -0.1996 
     59 N         -81.8349   25.6449  -75.9253 N.am      3 UNK        -0.4254 
     60 C         -82.1580   26.0790  -77.1496 C.2       2 UNK         0.5004 
     61 O         -82.0626   25.3939  -78.1684 O.2       2 UNK        -0.5226 
     62 CA        -82.6752   27.5253  -77.2646 C.3       2 UNK         0.0269 
     63 CB        -84.2027   27.5382  -77.4393 C.3       2 UNK        -0.1926 
     64 N         -82.3208   28.3685  -76.1181 N.am      2 UNK        -0.4687 
     65 C         -81.0851   28.8129  -75.8430 C.2       1 UNK         0.5165 
     66 O         -80.1070   28.5678  -76.5500 O.2       1 UNK        -0.5079 
     67 H67       -84.9898   31.4907  -74.5374 H         1 UNK         0.0900 
     68 H68       -84.1073   32.6127  -73.4981 H         1 UNK         0.0900 
     69 H69       -84.3633   30.9454  -72.9801 H         1 UNK         0.0900 
     70 H70       -82.5161   29.6875  -73.1992 H         1 UNK         0.2959 
     71 H71       -80.2950   30.5096  -74.8528 H         1 UNK         0.1079 
     72 H72       -79.8531   29.5723  -72.6774 H         1 UNK         0.0837 
     73 H73       -79.1421   28.5396  -73.8777 H         1 UNK         0.0837 
     74 H74       -80.4845   28.4926  -70.6507 H         1 UNK         0.0685 
     75 H75       -81.1303   26.8902  -70.4449 H         1 UNK         0.0685 
     76 H76       -79.6746   24.9973  -70.1628 H         1 UNK         0.1434 
     77 H77       -75.4286   25.6229  -70.1612 H         1 UNK         0.1329 
     78 H78       -78.0429   28.7340  -71.4951 H         1 UNK         0.1335 
     79 H79       -74.7898   28.2288  -70.2969 H         1 UNK         0.0680 
     80 H80       -75.7233   29.1385  -71.4666 H         1 UNK         0.0680 
     81 H81       -72.2944   28.4931  -73.0207 H         1 UNK         0.1032 
     82 H82       -73.3146   29.5416  -72.0812 H         1 UNK         0.1032 
     83 H83       -74.7735   29.9198  -74.0798 H         1 UNK         0.0461 
     84 H84       -71.3537   29.8456  -75.3253 H         1 UNK         0.3453 
     85 H85       -71.1614   31.5844  -75.2047 H         1 UNK         0.3453 
     86 H86       -73.2780   27.7920  -75.2749 H         1 UNK         0.2984 
     87 H87       -74.6381   26.9884  -77.2677 H         1 UNK         0.0554 
     88 H88       -75.9584   28.3836  -78.8110 H         1 UNK         0.0847 
     89 H89       -74.7725   27.4578  -79.7172 H         1 UNK         0.0847 
     90 H90       -74.5118   29.1748  -79.4124 H         1 UNK         0.0847 
     91 H91       -72.4784   26.6678  -77.4962 H         1 UNK         0.3141 
     92 H92       -70.2789   27.1754  -79.2311 H         1 UNK         0.0743 
     93 H93       -69.3524   29.4553  -79.2931 H         1 UNK         0.0784 
     94 H94       -69.3210   29.5434  -77.5391 H         1 UNK         0.0784 
     95 H95       -68.2652   28.4156  -78.3893 H         1 UNK         0.0784 
     96 H96       -69.9102   25.8950  -77.4612 H         1 UNK         0.3213 
     97 H97       -68.9391   25.6306  -75.0702 H         1 UNK         0.0855 
     98 H98       -69.5742   27.1859  -73.1807 H         1 UNK         0.0814 
     99 H99       -69.8473   25.4933  -72.8037 H         1 UNK         0.0814 
    100 H100      -71.2062   26.5248  -73.2215 H         1 UNK         0.0814 
    101 H101      -70.3323   23.8974  -75.3399 H         1 UNK         0.3105 
    102 H102      -73.1627   23.4428  -76.7416 H         1 UNK         0.0547 
    103 H103      -71.0586   22.2343  -76.3072 H         1 UNK         0.0837 
    104 H104      -71.4335   22.0992  -74.5893 H         1 UNK         0.0837 
    105 H105      -72.4082   21.2537  -75.7829 H         1 UNK         0.0837 
    106 H106      -74.9029   23.2441  -75.3918 H         1 UNK         0.3020 
    107 H107      -75.9714   22.1655  -73.4522 H         1 UNK         0.1245 
    108 H108      -75.0098   23.5194  -70.8894 H         1 UNK         0.0781 
    109 H109      -74.9414   21.8193  -71.2460 H         1 UNK         0.0781 
    110 H110      -76.4403   23.7490  -68.8757 H         1 UNK         0.0836 
    111 H111      -78.1660   23.5260  -68.8562 H         1 UNK         0.0836 
    112 H112      -76.4630   24.8757  -72.5369 H         1 UNK         0.3022 
    113 H113      -78.0302   26.0514  -73.5621 H         1 UNK         0.0747 
    114 H114      -77.6776   27.6696  -75.4426 H         1 UNK         0.0793 
    115 H115      -76.1433   27.0005  -74.9170 H         1 UNK         0.0793 
    116 H116      -76.8925   26.4143  -76.3939 H         1 UNK         0.0793 
    117 H117      -79.3085   25.8561  -76.0646 H         1 UNK         0.3047 
    118 H118      -80.9784   23.8100  -76.5120 H         1 UNK         0.0822 
    119 H119      -83.2533   23.3685  -75.5558 H         1 UNK         0.0807 
    120 H120      -82.7067   23.9359  -73.9780 H         1 UNK         0.0807 
    121 H121      -82.0123   22.4822  -74.6856 H         1 UNK         0.0807 
    122 H122      -81.9162   26.2913  -75.1516 H         1 UNK         0.2946 
    123 H123      -82.2217   27.9583  -78.1594 H         1 UNK         0.1144 
    124 H124      -84.5758   28.5502  -77.5977 H         1 UNK         0.0793 
    125 H125      -84.7126   27.1230  -76.5690 H         1 UNK         0.0793 
    126 H126      -84.5018   26.9458  -78.3054 H         1 UNK         0.0793 
    127 H127      -83.0653   28.6192  -75.4835 H         1 UNK         0.2896 
@<TRIPOS>BOND
     1    1    2 1    
     2    1   67 1    
     3    1   68 1    
     4    1   69 1    
     5    2    3 2    
     6    2    4 am   BACKBONE|DICT|INTERRES
     7    4    5 1    
     8    4   70 1    
     9    5    6 1    
    10    5   65 1    
    11    5   71 1    
    12    6    7 1    
    13    6   72 1    
    14    6   73 1    
    15    7    8 1    
    16    8    9 1    
    17    8   74 1    
    18    8   75 1    
    19    9   10 ar   
    20    9   14 ar   
    21   10   11 ar   
    22   10   76 1    
    23   11   12 ar   
    24   11   48 1    
    25   12   13 ar   
    26   12   77 1    
    27   13   14 ar   
    28   13   15 1    
    29   14   78 1    
    30   15   16 1    
    31   15   79 1    
    32   15   80 1    
    33   16   17 1    
    34   17   18 1    
    35   17   81 1    
    36   17   82 1    
    37   18   19 1    
    38   18   22 1    
    39   18   83 1    
    40   19   20 am   BACKBONE|DICT|INTERRES
    41   19   21 2    
    42   20   84 1    
    43   20   85 1    
    44   22   23 am   BACKBONE|DICT|INTERRES
    45   22   86 1    
    46   23   24 2    
    47   23   25 1    
    48   25   26 1    
    49   25   27 1    
    50   25   87 1    
    51   26   88 1    
    52   26   89 1    
    53   26   90 1    
    54   27   28 am   BACKBONE|DICT|INTERRES
    55   27   91 1    
    56   28   29 2    
    57   28   30 1    
    58   30   31 1    
    59   30   32 1    
    60   30   92 1    
    61   31   93 1    
    62   31   94 1    
    63   31   95 1    
    64   32   33 am   BACKBONE|DICT|INTERRES
    65   32   96 1    
    66   33   34 2    
    67   33   35 1    
    68   35   36 1    
    69   35   37 1    
    70   35   97 1    
    71   36   98 1    
    72   36   99 1    
    73   36  100 1    
    74   37   38 am   BACKBONE|DICT|INTERRES
    75   37  101 1    
    76   38   39 2    
    77   38   40 1    
    78   40   41 1    
    79   40   42 1    
    80   40  102 1    
    81   41  103 1    
    82   41  104 1    
    83   41  105 1    
    84   42   43 am   BACKBONE|DICT|INTERRES
    85   42  106 1    
    86   43   44 2    
    87   43   45 1    
    88   45   46 1    
    89   45   49 1    
    90   45  107 1    
    91   46   47 1    
    92   46  108 1    
    93   46  109 1    
    94   47   48 1    
    95   48  110 1    
    96   48  111 1    
    97   49   50 am   BACKBONE|DICT|INTERRES
    98   49  112 1    
    99   50   51 2    
   100   50   52 1    
   101   52   53 1    
   102   52   54 1    
   103   52  113 1    
   104   53  114 1    
   105   53  115 1    
   106   53  116 1    
   107   54   55 am   BACKBONE|DICT|INTERRES
   108   54  117 1    
   109   55   56 2    
   110   55   57 1    
   111   57   58 1    
   112   57   59 1    
   113   57  118 1    
   114   58  119 1    
   115   58  120 1    
   116   58  121 1    
   117   59   60 am   BACKBONE|DICT|INTERRES
   118   59  122 1    
   119   60   61 2    
   120   60   62 1    
   121   62   63 1    
   122   62   64 1    
   123   62  123 1    
   124   63  124 1    
   125   63  125 1    
   126   63  126 1    
   127   64   65 am   BACKBONE|DICT|INTERRES
   128   64  127 1    
   129   65   66 2    
@<TRIPOS>SUBSTRUCTURE
     1 UNK         1 GROUP             0       ****    0 ROOT    
