@<TRIPOS>MOLECULE
3R135
127   129    1
SMALL
USER_CHARGES


@<TRIPOS>ATOM
      1 CA        -78.1773   21.6566  -70.9858 C.3       0 UNK        -0.1998 
      2 C         -78.7762   22.6971  -71.9188 C.2       0 UNK         0.4909 
      3 O         -78.4968   22.6743  -73.1169 O.2       0 UNK        -0.5240 
      4 N         -79.6196   23.5931  -71.3838 N.am      1 UNK        -0.4739 
      5 CA        -80.2426   24.7372  -72.0781 C.3       1 UNK         0.0864 
      6 C6        -79.2181   25.8459  -72.4578 C.3       11 UNK        -0.0881 
      7 S7        -78.2780   26.4221  -71.0015 S.3       11 UNK        -0.2682 
      8 C8        -79.0334   28.0435  -70.6630 C.3       11 UNK         0.0289 
      9 C9        -78.3051   29.1659  -71.3875 C.ar      11 UNK        -0.0687 
     10 C10       -78.9106   29.8528  -72.4439 C.ar      11 UNK        -0.0823 
     11 C11       -78.2414   30.9033  -73.0827 C.ar      11 UNK        -0.0830 
     12 C12       -76.9501   31.2495  -72.6708 C.ar      11 UNK        -0.1021 
     13 C13       -76.3378   30.5763  -71.6091 C.ar      11 UNK        -0.0753 
     14 C14       -77.0265   29.5425  -70.9677 C.ar      11 UNK        -0.0933 
     15 C15       -74.9501   30.9880  -71.1333 C.3       11 UNK         0.0166 
     16 S16       -73.7916   29.5873  -71.1472 S.3       11 UNK        -0.2615 
     17 C17       -72.1954   30.4260  -70.8678 C.3       11 UNK        -0.0865 
     18 CA        -71.5062   30.8759  -72.1841 C.3       10 UNK         0.0862 
     19 C         -70.1295   31.5405  -71.8923 C.2       10 UNK         0.5551 
     20 N         -69.0154   31.0060  -72.3772 N.am      10 UNK        -0.7319 
     21 O         -70.0746   32.5640  -71.2147 O.2       10 UNK        -0.5018 
     22 N         -71.4818   29.7958  -73.1838 N.am      10 UNK        -0.4509 
     23 C         -71.3432   29.9588  -74.5023 C.2       10 UNK         0.4899 
     24 O         -71.1331   31.0467  -75.0393 O.2       10 UNK        -0.4839 
     25 CA        -71.4904   28.7071  -75.3834 C.3       9 UNK         0.0222 
     26 CB        -70.1656   27.9267  -75.4820 C.3       9 UNK        -0.1966 
     27 N         -72.6147   27.8338  -75.0172 N.am      9 UNK        -0.4218 
     28 C         -72.7750   27.0430  -73.9444 C.2       9 UNK         0.5020 
     29 O         -71.9689   26.9694  -73.0156 O.2       9 UNK        -0.5274 
     30 CA        -74.0462   26.1710  -73.9120 C.3       8 UNK         0.0270 
     31 CB        -75.2250   26.9326  -73.2850 C.3       8 UNK        -0.1976 
     32 N         -74.4317   25.6815  -75.2393 N.am      8 UNK        -0.4313 
     33 C         -73.7061   24.8242  -75.9737 C.2       8 UNK         0.5041 
     34 O         -72.6667   24.2909  -75.5834 O.2       8 UNK        -0.5577 
     35 CA        -74.2163   24.5203  -77.3892 C.3       7 UNK         0.0284 
     36 CB        -75.2384   23.3767  -77.3572 C.3       7 UNK        -0.1958 
     37 N         -74.8140   25.7042  -78.0097 N.am      7 UNK        -0.4454 
     38 C         -74.1027   26.6752  -78.6010 C.2       7 UNK         0.5089 
     39 O         -72.8819   26.6340  -78.7545 O.2       7 UNK        -0.5125 
     40 CA        -74.8751   27.9126  -79.0934 C.3       6 UNK         0.0408 
     41 CB        -75.3451   27.7102  -80.5424 C.3       6 UNK        -0.1791 
     42 N         -76.0250   28.2563  -78.2537 N.am      6 UNK        -0.4762 
     43 C         -75.9521   28.6618  -76.9767 C.2       6 UNK         0.5007 
     44 O         -74.8932   28.8163  -76.3712 O.2       6 UNK        -0.5032 
     45 CA        -77.2882   28.8940  -76.2434 C.3       5 UNK         0.0783 
     46 C46       -77.7131   30.3787  -76.3653 C.3       11 UNK        -0.0857 
     47 S47       -79.3539   30.7095  -75.6343 S.3       11 UNK        -0.2512 
     48 C48       -78.9364   31.7086  -74.1729 C.3       11 UNK         0.0225 
     49 N         -78.3486   27.9839  -76.6916 N.am      5 UNK        -0.4615 
     50 C         -78.3242   26.6474  -76.6404 C.2       4 UNK         0.5053 
     51 O         -77.3456   25.9926  -76.2706 O.2       4 UNK        -0.5105 
     52 CA        -79.6278   25.9694  -77.0884 C.3       4 UNK         0.0263 
     53 CB        -79.9150   26.1994  -78.5886 C.3       4 UNK        -0.1981 
     54 N         -79.7012   24.5538  -76.7170 N.am      4 UNK        -0.4224 
     55 C         -79.1214   23.4899  -77.2957 C.2       3 UNK         0.4895 
     56 O         -78.4283   23.5473  -78.3117 O.2       3 UNK        -0.5091 
     57 CA        -79.3668   22.1095  -76.6484 C.3       3 UNK         0.0250 
     58 CB        -78.0448   21.4557  -76.2126 C.3       3 UNK        -0.1996 
     59 N         -80.2757   22.1650  -75.4985 N.am      3 UNK        -0.4254 
     60 C         -81.6148   22.1953  -75.5909 C.2       2 UNK         0.5004 
     61 O         -82.2248   22.0753  -76.6537 O.2       2 UNK        -0.5226 
     62 CA        -82.4190   22.4283  -74.2960 C.3       2 UNK         0.0269 
     63 CB        -82.9880   21.0998  -73.7719 C.3       2 UNK        -0.1926 
     64 N         -81.6590   23.0783  -73.2232 N.am      2 UNK        -0.4687 
     65 C         -81.1215   24.3070  -73.2776 C.2       1 UNK         0.5165 
     66 O         -81.2716   25.0615  -74.2397 O.2       1 UNK        -0.5079 
     67 H67       -78.5227   21.7811  -69.9597 H         1 UNK         0.0900 
     68 H68       -78.4487   20.6549  -71.3175 H         1 UNK         0.0900 
     69 H69       -77.0904   21.7344  -70.9898 H         1 UNK         0.0900 
     70 H70       -79.8145   23.5433  -70.3932 H         1 UNK         0.2959 
     71 H71       -80.9422   25.1758  -71.3648 H         1 UNK         0.1079 
     72 H72       -79.7138   26.7003  -72.9224 H         1 UNK         0.0837 
     73 H73       -78.5094   25.4723  -73.1994 H         1 UNK         0.0837 
     74 H74       -78.9864   28.2300  -69.5891 H         1 UNK         0.0685 
     75 H75       -80.0937   28.0258  -70.9201 H         1 UNK         0.0685 
     76 H76       -79.9095   29.5846  -72.7603 H         1 UNK         0.1434 
     77 H77       -76.4310   32.0632  -73.1588 H         1 UNK         0.1329 
     78 H78       -76.5611   29.0213  -70.1421 H         1 UNK         0.1335 
     79 H79       -74.5504   31.7845  -71.7628 H         1 UNK         0.0680 
     80 H80       -75.0198   31.3904  -70.1218 H         1 UNK         0.0680 
     81 H81       -71.5502   29.7323  -70.3253 H         1 UNK         0.1032 
     82 H82       -72.3496   31.2767  -70.2010 H         1 UNK         0.1032 
     83 H83       -72.1247   31.6701  -72.6066 H         1 UNK         0.0461 
     84 H84       -69.0575   30.1695  -72.9367 H         1 UNK         0.3453 
     85 H85       -68.1288   31.4454  -72.1856 H         1 UNK         0.3453 
     86 H86       -71.6520   28.8545  -72.8407 H         1 UNK         0.2984 
     87 H87       -71.7295   29.0624  -76.3871 H         1 UNK         0.0554 
     88 H88       -69.3672   28.5641  -75.8639 H         1 UNK         0.0847 
     89 H89       -70.2574   27.0792  -76.1616 H         1 UNK         0.0847 
     90 H90       -69.8399   27.5457  -74.5138 H         1 UNK         0.0847 
     91 H91       -73.4147   27.9148  -75.6411 H         1 UNK         0.3141 
     92 H92       -73.8375   25.2980  -73.2902 H         1 UNK         0.0743 
     93 H93       -75.0470   27.1118  -72.2245 H         1 UNK         0.0784 
     94 H94       -75.3795   27.9048  -73.7530 H         1 UNK         0.0784 
     95 H95       -76.1550   26.3693  -73.3612 H         1 UNK         0.0784 
     96 H96       -75.3118   26.0129  -75.6186 H         1 UNK         0.3213 
     97 H97       -73.3653   24.1938  -77.9914 H         1 UNK         0.0855 
     98 H98       -76.1028   23.6340  -76.7457 H         1 UNK         0.0814 
     99 H99       -74.7994   22.4710  -76.9369 H         1 UNK         0.0814 
    100 H100      -75.5959   23.1323  -78.3576 H         1 UNK         0.0814 
    101 H101      -75.8109   25.8298  -77.8839 H         1 UNK         0.3105 
    102 H102      -74.1857   28.7594  -79.0744 H         1 UNK         0.0547 
    103 H103      -74.5033   27.4758  -81.1956 H         1 UNK         0.0837 
    104 H104      -76.0595   26.8902  -80.6261 H         1 UNK         0.0837 
    105 H105      -75.8170   28.6100  -80.9371 H         1 UNK         0.0837 
    106 H106      -76.9406   28.1524  -78.6670 H         1 UNK         0.3020 
    107 H107      -77.1163   28.6802  -75.1864 H         1 UNK         0.1245 
    108 H108      -77.7591   30.6800  -77.4139 H         1 UNK         0.0781 
    109 H109      -76.9681   31.0260  -75.8982 H         1 UNK         0.0781 
    110 H110      -79.8574   32.1262  -73.7637 H         1 UNK         0.0836 
    111 H111      -78.3307   32.5619  -74.4821 H         1 UNK         0.0836 
    112 H112      -79.1999   28.4399  -76.9874 H         1 UNK         0.3022 
    113 H113      -80.4324   26.4447  -76.5249 H         1 UNK         0.0747 
    114 H114      -80.8054   25.6587  -78.9094 H         1 UNK         0.0793 
    115 H115      -79.0839   25.8805  -79.2183 H         1 UNK         0.0793 
    116 H116      -80.0890   27.2548  -78.8003 H         1 UNK         0.0793 
    117 H117      -80.2261   24.3883  -75.8654 H         1 UNK         0.3047 
    118 H118      -79.8127   21.4738  -77.4164 H         1 UNK         0.0822 
    119 H119      -78.2139   20.4790  -75.7594 H         1 UNK         0.0807 
    120 H120      -77.5088   22.0721  -75.4906 H         1 UNK         0.0807 
    121 H121      -77.3845   21.3046  -77.0673 H         1 UNK         0.0807 
    122 H122      -79.8371   22.2862  -74.5896 H         1 UNK         0.2946 
    123 H123      -83.2539   23.0839  -74.5539 H         1 UNK         0.1144 
    124 H124      -83.5856   20.6017  -74.5369 H         1 UNK         0.0793 
    125 H125      -83.6367   21.2573  -72.9099 H         1 UNK         0.0793 
    126 H126      -82.1962   20.4101  -73.4768 H         1 UNK         0.0793 
    127 H127      -81.4715   22.5229  -72.4006 H         1 UNK         0.2896 
@<TRIPOS>BOND
     1    1    2 1    
     2    1   67 1    
     3    1   68 1    
     4    1   69 1    
     5    2    3 2    
     6    2    4 am   BACKBONE|DICT|INTERRES
     7    4    5 1    
     8    4   70 1    
     9    5    6 1    
    10    5   65 1    
    11    5   71 1    
    12    6    7 1    
    13    6   72 1    
    14    6   73 1    
    15    7    8 1    
    16    8    9 1    
    17    8   74 1    
    18    8   75 1    
    19    9   10 ar   
    20    9   14 ar   
    21   10   11 ar   
    22   10   76 1    
    23   11   12 ar   
    24   11   48 1    
    25   12   13 ar   
    26   12   77 1    
    27   13   14 ar   
    28   13   15 1    
    29   14   78 1    
    30   15   16 1    
    31   15   79 1    
    32   15   80 1    
    33   16   17 1    
    34   17   18 1    
    35   17   81 1    
    36   17   82 1    
    37   18   19 1    
    38   18   22 1    
    39   18   83 1    
    40   19   20 am   BACKBONE|DICT|INTERRES
    41   19   21 2    
    42   20   84 1    
    43   20   85 1    
    44   22   23 am   BACKBONE|DICT|INTERRES
    45   22   86 1    
    46   23   24 2    
    47   23   25 1    
    48   25   26 1    
    49   25   27 1    
    50   25   87 1    
    51   26   88 1    
    52   26   89 1    
    53   26   90 1    
    54   27   28 am   BACKBONE|DICT|INTERRES
    55   27   91 1    
    56   28   29 2    
    57   28   30 1    
    58   30   31 1    
    59   30   32 1    
    60   30   92 1    
    61   31   93 1    
    62   31   94 1    
    63   31   95 1    
    64   32   33 am   BACKBONE|DICT|INTERRES
    65   32   96 1    
    66   33   34 2    
    67   33   35 1    
    68   35   36 1    
    69   35   37 1    
    70   35   97 1    
    71   36   98 1    
    72   36   99 1    
    73   36  100 1    
    74   37   38 am   BACKBONE|DICT|INTERRES
    75   37  101 1    
    76   38   39 2    
    77   38   40 1    
    78   40   41 1    
    79   40   42 1    
    80   40  102 1    
    81   41  103 1    
    82   41  104 1    
    83   41  105 1    
    84   42   43 am   BACKBONE|DICT|INTERRES
    85   42  106 1    
    86   43   44 2    
    87   43   45 1    
    88   45   46 1    
    89   45   49 1    
    90   45  107 1    
    91   46   47 1    
    92   46  108 1    
    93   46  109 1    
    94   47   48 1    
    95   48  110 1    
    96   48  111 1    
    97   49   50 am   BACKBONE|DICT|INTERRES
    98   49  112 1    
    99   50   51 2    
   100   50   52 1    
   101   52   53 1    
   102   52   54 1    
   103   52  113 1    
   104   53  114 1    
   105   53  115 1    
   106   53  116 1    
   107   54   55 am   BACKBONE|DICT|INTERRES
   108   54  117 1    
   109   55   56 2    
   110   55   57 1    
   111   57   58 1    
   112   57   59 1    
   113   57  118 1    
   114   58  119 1    
   115   58  120 1    
   116   58  121 1    
   117   59   60 am   BACKBONE|DICT|INTERRES
   118   59  122 1    
   119   60   61 2    
   120   60   62 1    
   121   62   63 1    
   122   62   64 1    
   123   62  123 1    
   124   63  124 1    
   125   63  125 1    
   126   63  126 1    
   127   64   65 am   BACKBONE|DICT|INTERRES
   128   64  127 1    
   129   65   66 2    
@<TRIPOS>SUBSTRUCTURE
     1 UNK         1 GROUP             0       ****    0 ROOT    
