@<TRIPOS>MOLECULE
3R135
127   129    1
SMALL
USER_CHARGES


@<TRIPOS>ATOM
      1 CA        -83.1553   27.1503  -71.4670 C.3       0 UNK        -0.1998 
      2 C         -82.2629   27.1555  -72.6978 C.2       0 UNK         0.4909 
      3 O         -81.4957   26.2154  -72.8981 O.2       0 UNK        -0.5240 
      4 N         -82.3700   28.1996  -73.5338 N.am      1 UNK        -0.4739 
      5 CA        -81.5598   28.4500  -74.7417 C.3       1 UNK         0.0864 
      6 C6        -80.0654   28.7387  -74.4163 C.3       11 UNK        -0.0881 
      7 S7        -79.8389   30.3106  -73.5182 S.3       11 UNK        -0.2682 
      8 C8        -79.6980   29.7751  -71.7839 C.3       11 UNK         0.0289 
      9 C9        -78.3819   29.0719  -71.4827 C.ar      11 UNK        -0.0687 
     10 C10       -78.3625   27.7093  -71.1716 C.ar      11 UNK        -0.0823 
     11 C11       -77.1668   27.0796  -70.8110 C.ar      11 UNK        -0.0830 
     12 C12       -75.9781   27.8175  -70.7897 C.ar      11 UNK        -0.1021 
     13 C13       -75.9838   29.1805  -71.1070 C.ar      11 UNK        -0.0753 
     14 C14       -77.1900   29.8007  -71.4490 C.ar      11 UNK        -0.0933 
     15 C15       -74.7008   30.0011  -71.0315 C.3       11 UNK         0.0166 
     16 S16       -73.4763   29.5389  -72.2993 S.3       11 UNK        -0.2615 
     17 C17       -74.3944   29.7739  -73.8609 C.3       11 UNK        -0.0865 
     18 CA        -73.7657   30.7459  -74.9022 C.3       10 UNK         0.0862 
     19 C         -73.7905   32.2655  -74.5494 C.2       10 UNK         0.5551 
     20 N         -74.5680   32.6919  -73.5629 N.am      10 UNK        -0.7319 
     21 O         -73.1654   33.0812  -75.2250 O.2       10 UNK        -0.5018 
     22 N         -72.5034   30.2359  -75.4655 N.am      10 UNK        -0.4509 
     23 C         -71.2544   30.4464  -75.0227 C.2       10 UNK         0.4899 
     24 O         -70.9593   31.1316  -74.0417 O.2       10 UNK        -0.4839 
     25 CA        -70.1447   29.7465  -75.8334 C.3       9 UNK         0.0222 
     26 CB        -68.7257   30.0277  -75.2932 C.3       9 UNK        -0.1966 
     27 N         -70.3790   28.3026  -75.9612 N.am      9 UNK        -0.4218 
     28 C         -70.4919   27.3998  -74.9749 C.2       9 UNK         0.5020 
     29 O         -70.3478   27.6586  -73.7790 O.2       9 UNK        -0.5274 
     30 CA        -70.8210   25.9603  -75.4148 C.3       8 UNK         0.0270 
     31 CB        -71.0001   24.9953  -74.2265 C.3       8 UNK        -0.1976 
     32 N         -72.0207   25.9126  -76.2561 N.am      8 UNK        -0.4313 
     33 C         -72.0431   26.1464  -77.5760 C.2       8 UNK         0.5041 
     34 O         -71.0469   26.4993  -78.2092 O.2       8 UNK        -0.5577 
     35 CA        -73.3775   25.9774  -78.3230 C.3       7 UNK         0.0284 
     36 CB        -73.3993   24.6391  -79.0788 C.3       7 UNK        -0.1958 
     37 N         -74.5459   26.0501  -77.4458 N.am      7 UNK        -0.4454 
     38 C         -75.0575   27.1911  -76.9610 C.2       7 UNK         0.5089 
     39 O         -74.6084   28.3076  -77.2212 O.2       7 UNK        -0.5125 
     40 CA        -76.2594   27.0612  -76.0048 C.3       6 UNK         0.0408 
     41 CB        -77.5626   27.0733  -76.8131 C.3       6 UNK        -0.1791 
     42 N         -76.2247   25.8552  -75.1702 N.am      6 UNK        -0.4762 
     43 C         -75.2122   25.4958  -74.3627 C.2       6 UNK         0.5007 
     44 O         -74.2110   26.1870  -74.1862 O.2       6 UNK        -0.5032 
     45 CA        -75.2613   24.0982  -73.7090 C.3       5 UNK         0.0783 
     46 C46       -75.5498   24.1806  -72.1899 C.3       11 UNK        -0.0857 
     47 S47       -77.3051   24.4817  -71.7896 S.3       11 UNK        -0.2512 
     48 C48       -77.1853   25.6208  -70.3780 C.3       11 UNK         0.0225 
     49 N         -76.1497   23.1536  -74.3959 N.am      5 UNK        -0.4615 
     50 C         -76.0342   22.7572  -75.6703 C.2       4 UNK         0.5053 
     51 O         -75.1034   23.0917  -76.4043 O.2       4 UNK        -0.5105 
     52 CA        -77.1672   21.8839  -76.2410 C.3       4 UNK         0.0263 
     53 CB        -76.7510   20.4044  -76.2372 C.3       4 UNK        -0.1981 
     54 N         -78.4648   22.0230  -75.5627 N.am      4 UNK        -0.4224 
     55 C         -79.1677   23.1597  -75.4452 C.2       3 UNK         0.4895 
     56 O         -78.7571   24.2596  -75.8201 O.2       3 UNK        -0.5091 
     57 CA        -80.5360   23.0405  -74.7522 C.3       3 UNK         0.0250 
     58 CB        -80.3782   23.0663  -73.2245 C.3       3 UNK        -0.1996 
     59 N         -81.4493   24.1131  -75.1525 N.am      3 UNK        -0.4254 
     60 C         -82.0723   24.1706  -76.3396 C.2       2 UNK         0.5004 
     61 O         -81.9697   23.2970  -77.2026 O.2       2 UNK        -0.5226 
     62 CA        -82.9913   25.3767  -76.6159 C.3       2 UNK         0.0269 
     63 CB        -84.4681   24.9646  -76.4953 C.3       2 UNK        -0.1926 
     64 N         -82.7445   26.5116  -75.7244 N.am      2 UNK        -0.4687 
     65 C         -81.7271   27.3756  -75.8476 C.2       1 UNK         0.5165 
     66 O         -80.9578   27.3627  -76.8087 O.2       1 UNK        -0.5079 
     67 H67       -83.7995   26.2715  -71.4746 H         1 UNK         0.0900 
     68 H68       -83.7881   28.0363  -71.4172 H         1 UNK         0.0900 
     69 H69       -82.5454   27.1178  -70.5647 H         1 UNK         0.0900 
     70 H70       -83.0395   28.9262  -73.3195 H         1 UNK         0.2959 
     71 H71       -81.9731   29.3552  -75.1898 H         1 UNK         0.1079 
     72 H72       -79.6089   27.9129  -73.8685 H         1 UNK         0.0837 
     73 H73       -79.4854   28.8462  -75.3334 H         1 UNK         0.0837 
     74 H74       -80.5466   29.1442  -71.5225 H         1 UNK         0.0685 
     75 H75       -79.7765   30.6565  -71.1458 H         1 UNK         0.0685 
     76 H76       -79.2831   27.1407  -71.1833 H         1 UNK         0.1434 
     77 H77       -75.0497   27.3401  -70.5073 H         1 UNK         0.1329 
     78 H78       -77.2105   30.8580  -71.6747 H         1 UNK         0.1335 
     79 H79       -74.9139   31.0675  -71.1135 H         1 UNK         0.0680 
     80 H80       -74.2500   29.8607  -70.0481 H         1 UNK         0.0680 
     81 H81       -74.4586   28.7862  -74.3126 H         1 UNK         0.1032 
     82 H82       -75.4281   30.0553  -73.6612 H         1 UNK         0.1032 
     83 H83       -74.4401   30.7038  -75.7582 H         1 UNK         0.0461 
     84 H84       -75.0960   32.0431  -73.0048 H         1 UNK         0.3453 
     85 H85       -74.6032   33.6785  -73.3595 H         1 UNK         0.3453 
     86 H86       -72.6201   29.6586  -76.2862 H         1 UNK         0.2984 
     87 H87       -70.1957   30.1563  -76.8432 H         1 UNK         0.0554 
     88 H88       -67.9641   29.5500  -75.9093 H         1 UNK         0.0847 
     89 H89       -68.6015   29.6713  -74.2701 H         1 UNK         0.0847 
     90 H90       -68.5155   31.0979  -75.2905 H         1 UNK         0.0847 
     91 H91       -70.5147   27.9514  -76.9055 H         1 UNK         0.3141 
     92 H92       -69.9684   25.6024  -75.9960 H         1 UNK         0.0743 
     93 H93       -70.0861   24.9350  -73.6343 H         1 UNK         0.0784 
     94 H94       -71.7976   25.3190  -73.5573 H         1 UNK         0.0784 
     95 H95       -71.2328   23.9854  -74.5647 H         1 UNK         0.0784 
     96 H96       -72.8973   25.7592  -75.7708 H         1 UNK         0.3213 
     97 H97       -73.4447   26.7828  -79.0579 H         1 UNK         0.0855 
     98 H98       -72.5642   24.5721  -79.7776 H         1 UNK         0.0814 
     99 H99       -74.3155   24.5242  -79.6582 H         1 UNK         0.0814 
    100 H100      -73.3232   23.7896  -78.3987 H         1 UNK         0.0814 
    101 H101      -74.9540   25.1686  -77.1544 H         1 UNK         0.3105 
    102 H102      -76.2703   27.9228  -75.3371 H         1 UNK         0.0547 
    103 H103      -77.5917   26.2684  -77.5487 H         1 UNK         0.0837 
    104 H104      -78.4268   26.9494  -76.1632 H         1 UNK         0.0837 
    105 H105      -77.6862   28.0148  -77.3495 H         1 UNK         0.0837 
    106 H106      -77.0154   25.2241  -75.2648 H         1 UNK         0.3020 
    107 H107      -74.2507   23.6978  -73.8196 H         1 UNK         0.1245 
    108 H108      -74.9228   24.9420  -71.7212 H         1 UNK         0.0781 
    109 H109      -75.2658   23.2391  -71.7175 H         1 UNK         0.0781 
    110 H110      -76.3095   25.3792  -69.7738 H         1 UNK         0.0836 
    111 H111      -78.0469   25.4550  -69.7295 H         1 UNK         0.0836 
    112 H112      -76.9602   22.8580  -73.8716 H         1 UNK         0.3022 
    113 H113      -77.3122   22.1944  -77.2778 H         1 UNK         0.0747 
    114 H114      -77.4897   19.7815  -76.7421 H         1 UNK         0.0793 
    115 H115      -75.8029   20.2637  -76.7587 H         1 UNK         0.0793 
    116 H116      -76.6244   20.0232  -75.2231 H         1 UNK         0.0793 
    117 H117      -78.8709   21.1702  -75.2045 H         1 UNK         0.3047 
    118 H118      -80.9831   22.0855  -75.0368 H         1 UNK         0.0822 
    119 H119      -79.7056   22.2809  -72.8780 H         1 UNK         0.0807 
    120 H120      -81.3356   22.9174  -72.7250 H         1 UNK         0.0807 
    121 H121      -79.9731   24.0189  -72.8834 H         1 UNK         0.0807 
    122 H122      -81.5411   24.8910  -74.5072 H         1 UNK         0.2946 
    123 H123      -82.8065   25.6926  -77.6454 H         1 UNK         0.1144 
    124 H124      -84.6998   24.1397  -77.1707 H         1 UNK         0.0793 
    125 H125      -85.1329   25.7888  -76.7545 H         1 UNK         0.0793 
    126 H126      -84.7150   24.6371  -75.4846 H         1 UNK         0.0793 
    127 H127      -83.3357   26.5933  -74.9099 H         1 UNK         0.2896 
@<TRIPOS>BOND
     1    1    2 1    
     2    1   67 1    
     3    1   68 1    
     4    1   69 1    
     5    2    3 2    
     6    2    4 am   BACKBONE|DICT|INTERRES
     7    4    5 1    
     8    4   70 1    
     9    5    6 1    
    10    5   65 1    
    11    5   71 1    
    12    6    7 1    
    13    6   72 1    
    14    6   73 1    
    15    7    8 1    
    16    8    9 1    
    17    8   74 1    
    18    8   75 1    
    19    9   10 ar   
    20    9   14 ar   
    21   10   11 ar   
    22   10   76 1    
    23   11   12 ar   
    24   11   48 1    
    25   12   13 ar   
    26   12   77 1    
    27   13   14 ar   
    28   13   15 1    
    29   14   78 1    
    30   15   16 1    
    31   15   79 1    
    32   15   80 1    
    33   16   17 1    
    34   17   18 1    
    35   17   81 1    
    36   17   82 1    
    37   18   19 1    
    38   18   22 1    
    39   18   83 1    
    40   19   20 am   BACKBONE|DICT|INTERRES
    41   19   21 2    
    42   20   84 1    
    43   20   85 1    
    44   22   23 am   BACKBONE|DICT|INTERRES
    45   22   86 1    
    46   23   24 2    
    47   23   25 1    
    48   25   26 1    
    49   25   27 1    
    50   25   87 1    
    51   26   88 1    
    52   26   89 1    
    53   26   90 1    
    54   27   28 am   BACKBONE|DICT|INTERRES
    55   27   91 1    
    56   28   29 2    
    57   28   30 1    
    58   30   31 1    
    59   30   32 1    
    60   30   92 1    
    61   31   93 1    
    62   31   94 1    
    63   31   95 1    
    64   32   33 am   BACKBONE|DICT|INTERRES
    65   32   96 1    
    66   33   34 2    
    67   33   35 1    
    68   35   36 1    
    69   35   37 1    
    70   35   97 1    
    71   36   98 1    
    72   36   99 1    
    73   36  100 1    
    74   37   38 am   BACKBONE|DICT|INTERRES
    75   37  101 1    
    76   38   39 2    
    77   38   40 1    
    78   40   41 1    
    79   40   42 1    
    80   40  102 1    
    81   41  103 1    
    82   41  104 1    
    83   41  105 1    
    84   42   43 am   BACKBONE|DICT|INTERRES
    85   42  106 1    
    86   43   44 2    
    87   43   45 1    
    88   45   46 1    
    89   45   49 1    
    90   45  107 1    
    91   46   47 1    
    92   46  108 1    
    93   46  109 1    
    94   47   48 1    
    95   48  110 1    
    96   48  111 1    
    97   49   50 am   BACKBONE|DICT|INTERRES
    98   49  112 1    
    99   50   51 2    
   100   50   52 1    
   101   52   53 1    
   102   52   54 1    
   103   52  113 1    
   104   53  114 1    
   105   53  115 1    
   106   53  116 1    
   107   54   55 am   BACKBONE|DICT|INTERRES
   108   54  117 1    
   109   55   56 2    
   110   55   57 1    
   111   57   58 1    
   112   57   59 1    
   113   57  118 1    
   114   58  119 1    
   115   58  120 1    
   116   58  121 1    
   117   59   60 am   BACKBONE|DICT|INTERRES
   118   59  122 1    
   119   60   61 2    
   120   60   62 1    
   121   62   63 1    
   122   62   64 1    
   123   62  123 1    
   124   63  124 1    
   125   63  125 1    
   126   63  126 1    
   127   64   65 am   BACKBONE|DICT|INTERRES
   128   64  127 1    
   129   65   66 2    
@<TRIPOS>SUBSTRUCTURE
     1 UNK         1 GROUP             0       ****    0 ROOT    
