@<TRIPOS>MOLECULE
3R135
127   129    1
SMALL
USER_CHARGES


@<TRIPOS>ATOM
      1 CA        -79.1961   28.4297  -67.8703 C.3       0 UNK        -0.1998 
      2 C         -80.3708   27.6151  -68.3916 C.2       0 UNK         0.4909 
      3 O         -81.0661   26.9694  -67.6065 O.2       0 UNK        -0.5240 
      4 N         -80.5946   27.6437  -69.7094 N.am      1 UNK        -0.4739 
      5 CA        -81.6260   26.8701  -70.4090 C.3       1 UNK         0.0864 
      6 C6        -82.2827   27.6980  -71.5458 C.3       11 UNK        -0.0881 
      7 S7        -81.1074   28.2376  -72.8363 S.3       11 UNK        -0.2682 
      8 C8        -80.9962   30.0337  -72.5556 C.3       11 UNK         0.0289 
      9 C9        -79.6460   30.5536  -73.0240 C.ar      11 UNK        -0.0687 
     10 C10       -79.2795   30.4458  -74.3693 C.ar      11 UNK        -0.0823 
     11 C11       -77.9876   30.7838  -74.7854 C.ar      11 UNK        -0.0830 
     12 C12       -77.0827   31.3002  -73.8524 C.ar      11 UNK        -0.1021 
     13 C13       -77.4478   31.4428  -72.5093 C.ar      11 UNK        -0.0753 
     14 C14       -78.7327   31.0731  -72.1021 C.ar      11 UNK        -0.0933 
     15 C15       -76.4417   31.9582  -71.4891 C.3       11 UNK         0.0166 
     16 S16       -75.8728   30.6518  -70.3484 S.3       11 UNK        -0.2615 
     17 C17       -75.0698   29.4684  -71.4871 C.3       11 UNK        -0.0865 
     18 CA        -75.6095   28.0158  -71.3590 C.3       10 UNK         0.0862 
     19 C         -77.0991   27.8759  -71.7832 C.2       10 UNK         0.5551 
     20 N         -77.4134   27.8874  -73.0675 N.am      10 UNK        -0.7319 
     21 O         -77.9738   27.7355  -70.9330 O.2       10 UNK        -0.5018 
     22 N         -74.7113   27.0312  -71.9862 N.am      10 UNK        -0.4509 
     23 C         -74.3594   26.9604  -73.2765 C.2       10 UNK         0.4899 
     24 O         -74.7515   27.7388  -74.1507 O.2       10 UNK        -0.4839 
     25 CA        -73.4204   25.7996  -73.6454 C.3       9 UNK         0.0222 
     26 CB        -74.2076   24.4867  -73.7513 C.3       9 UNK        -0.1966 
     27 N         -72.7404   26.0620  -74.9154 N.am      9 UNK        -0.4218 
     28 C         -71.6843   26.8801  -75.0386 C.2       9 UNK         0.5020 
     29 O         -71.1115   27.3927  -74.0741 O.2       9 UNK        -0.5274 
     30 CA        -71.1993   27.2130  -76.4644 C.3       8 UNK         0.0270 
     31 CB        -69.7009   27.5829  -76.5211 C.3       8 UNK        -0.1976 
     32 N         -71.5313   26.1927  -77.4644 N.am      8 UNK        -0.4313 
     33 C         -71.0835   24.9284  -77.5345 C.2       8 UNK         0.5041 
     34 O         -70.2722   24.4460  -76.7431 O.2       8 UNK        -0.5577 
     35 CA        -71.6390   24.0411  -78.6672 C.3       7 UNK         0.0284 
     36 CB        -72.1263   22.6866  -78.1205 C.3       7 UNK        -0.1958 
     37 N         -72.7466   24.6895  -79.3741 N.am      7 UNK        -0.4454 
     38 C         -72.6452   25.3507  -80.5359 C.2       7 UNK         0.5089 
     39 O         -71.6095   25.4152  -81.1982 O.2       7 UNK        -0.5125 
     40 CA        -73.9020   26.0920  -81.0363 C.3       6 UNK         0.0408 
     41 CB        -74.6336   25.2496  -82.0930 C.3       6 UNK        -0.1791 
     42 N         -74.8432   26.4483  -79.9684 N.am      6 UNK        -0.4762 
     43 C         -74.5938   27.3145  -78.9737 C.2       6 UNK         0.5007 
     44 O         -73.5493   27.9586  -78.8821 O.2       6 UNK        -0.5032 
     45 CA        -75.6458   27.4131  -77.8507 C.3       5 UNK         0.0783 
     46 C46       -76.6237   28.5883  -78.0959 C.3       11 UNK        -0.0857 
     47 S47       -77.7775   28.7886  -76.6951 S.3       11 UNK        -0.2512 
     48 C48       -77.5497   30.5372  -76.2245 C.3       11 UNK         0.0225 
     49 N         -76.3583   26.1461  -77.6423 N.am      5 UNK        -0.4615 
     50 C         -75.8083   24.9964  -77.2346 C.2       4 UNK         0.5053 
     51 O         -74.5973   24.8558  -77.0521 O.2       4 UNK        -0.5105 
     52 CA        -76.7851   23.8319  -76.9823 C.3       4 UNK         0.0263 
     53 CB        -76.0896   22.5456  -76.5005 C.3       4 UNK        -0.1981 
     54 N         -77.8034   24.2351  -76.0089 N.am      4 UNK        -0.4224 
     55 C         -78.9323   24.8884  -76.3020 C.2       3 UNK         0.4895 
     56 O         -79.2833   25.0988  -77.4648 O.2       3 UNK        -0.5091 
     57 CA        -79.7839   25.4630  -75.1445 C.3       3 UNK         0.0250 
     58 CB        -81.2607   25.6214  -75.5571 C.3       3 UNK        -0.1996 
     59 N         -79.7474   24.7858  -73.8388 N.am      3 UNK        -0.4254 
     60 C         -78.7010   24.5863  -73.0248 C.2       2 UNK         0.5004 
     61 O         -77.5256   24.7311  -73.3581 O.2       2 UNK        -0.5226 
     62 CA        -79.0440   24.2279  -71.5692 C.3       2 UNK         0.0269 
     63 CB        -77.7918   23.9184  -70.7268 C.3       2 UNK        -0.1926 
     64 N         -79.7464   25.3605  -70.9639 N.am      2 UNK        -0.4687 
     65 C         -81.0774   25.5203  -70.9269 C.2       1 UNK         0.5165 
     66 O         -81.8670   24.6571  -71.3137 O.2       1 UNK        -0.5079 
     67 H67       -78.4184   27.7662  -67.4935 H         1 UNK         0.0900 
     68 H68       -79.5181   29.0783  -67.0563 H         1 UNK         0.0900 
     69 H69       -78.7589   29.0563  -68.6482 H         1 UNK         0.0900 
     70 H70       -79.9283   28.1177  -70.3110 H         1 UNK         0.2959 
     71 H71       -82.4192   26.6162  -69.7023 H         1 UNK         0.1079 
     72 H72       -82.7852   28.5687  -71.1224 H         1 UNK         0.0837 
     73 H73       -83.0718   27.1177  -72.0280 H         1 UNK         0.0837 
     74 H74       -81.7986   30.5393  -73.0943 H         1 UNK         0.0685 
     75 H75       -81.1394   30.2502  -71.4959 H         1 UNK         0.0685 
     76 H76       -79.9782   30.0261  -75.0802 H         1 UNK         0.1434 
     77 H77       -76.0802   31.5593  -74.1640 H         1 UNK         0.1329 
     78 H78       -79.0011   31.1482  -71.0574 H         1 UNK         0.1335 
     79 H79       -75.5762   32.3995  -71.9858 H         1 UNK         0.0680 
     80 H80       -76.9005   32.7585  -70.9068 H         1 UNK         0.0680 
     81 H81       -74.0031   29.4816  -71.2597 H         1 UNK         0.1032 
     82 H82       -75.1498   29.8156  -72.5171 H         1 UNK         0.1032 
     83 H83       -75.5770   27.7628  -70.2981 H         1 UNK         0.0461 
     84 H84       -76.6769   27.9718  -73.7574 H         1 UNK         0.3453 
     85 H85       -78.3802   27.8462  -73.3415 H         1 UNK         0.3453 
     86 H86       -74.3649   26.3167  -71.3627 H         1 UNK         0.2984 
     87 H87       -72.6693   25.6878  -72.8605 H         1 UNK         0.0554 
     88 H88       -75.0651   24.5993  -74.4121 H         1 UNK         0.0847 
     89 H89       -74.5960   24.1803  -72.7794 H         1 UNK         0.0847 
     90 H90       -73.5894   23.6724  -74.1295 H         1 UNK         0.0847 
     91 H91       -73.1906   25.7015  -75.7500 H         1 UNK         0.3141 
     92 H92       -71.7595   28.1019  -76.7575 H         1 UNK         0.0743 
     93 H93       -69.4885   28.4543  -75.9004 H         1 UNK         0.0784 
     94 H94       -69.0686   26.7697  -76.1637 H         1 UNK         0.0784 
     95 H95       -69.3909   27.8288  -77.5367 H         1 UNK         0.0784 
     96 H96       -72.1960   26.4968  -78.1666 H         1 UNK         0.3213 
     97 H97       -70.8157   23.8499  -79.3586 H         1 UNK         0.0855 
     98 H98       -71.3035   22.1262  -77.6749 H         1 UNK         0.0814 
     99 H99       -72.5476   22.0659  -78.9112 H         1 UNK         0.0814 
    100 H100      -72.8865   22.8120  -77.3490 H         1 UNK         0.0814 
    101 H101      -73.6244   24.7201  -78.8668 H         1 UNK         0.3105 
    102 H102      -73.5685   27.0181  -81.5091 H         1 UNK         0.0547 
    103 H103      -73.9668   24.9938  -82.9178 H         1 UNK         0.0837 
    104 H104      -75.0086   24.3138  -81.6764 H         1 UNK         0.0837 
    105 H105      -75.4780   25.7914  -82.5194 H         1 UNK         0.0837 
    106 H106      -75.7262   25.9576  -79.9575 H         1 UNK         0.3020 
    107 H107      -75.0948   27.6220  -76.9300 H         1 UNK         0.1245 
    108 H108      -77.2089   28.4227  -79.0024 H         1 UNK         0.0781 
    109 H109      -76.0738   29.5181  -78.2529 H         1 UNK         0.0781 
    110 H110      -78.1246   31.1738  -76.8980 H         1 UNK         0.0836 
    111 H111      -76.5012   30.8113  -76.3496 H         1 UNK         0.0836 
    112 H112      -77.3651   26.1786  -77.7468 H         1 UNK         0.3022 
    113 H113      -77.2618   23.6024  -77.9375 H         1 UNK         0.0747 
    114 H114      -75.3299   22.2222  -77.2129 H         1 UNK         0.0793 
    115 H115      -75.6002   22.6761  -75.5368 H         1 UNK         0.0793 
    116 H116      -76.8040   21.7286  -76.3999 H         1 UNK         0.0793 
    117 H117      -77.5354   24.2181  -75.0244 H         1 UNK         0.3047 
    118 H118      -79.3881   26.4658  -74.9724 H         1 UNK         0.0822 
    119 H119      -81.3612   26.2614  -76.4348 H         1 UNK         0.0807 
    120 H120      -81.8538   26.0795  -74.7659 H         1 UNK         0.0807 
    121 H121      -81.7129   24.6590  -75.7990 H         1 UNK         0.0807 
    122 H122      -80.6570   24.6054  -73.4361 H         1 UNK         0.2946 
    123 H123      -79.6794   23.3393  -71.5781 H         1 UNK         0.1144 
    124 H124      -78.0593   23.6471  -69.7056 H         1 UNK         0.0793 
    125 H125      -77.1153   24.7730  -70.6796 H         1 UNK         0.0793 
    126 H126      -77.2334   23.0825  -71.1501 H         1 UNK         0.0793 
    127 H127      -79.1682   26.1588  -70.7172 H         1 UNK         0.2896 
@<TRIPOS>BOND
     1    1    2 1    
     2    1   67 1    
     3    1   68 1    
     4    1   69 1    
     5    2    3 2    
     6    2    4 am   BACKBONE|DICT|INTERRES
     7    4    5 1    
     8    4   70 1    
     9    5    6 1    
    10    5   65 1    
    11    5   71 1    
    12    6    7 1    
    13    6   72 1    
    14    6   73 1    
    15    7    8 1    
    16    8    9 1    
    17    8   74 1    
    18    8   75 1    
    19    9   10 ar   
    20    9   14 ar   
    21   10   11 ar   
    22   10   76 1    
    23   11   12 ar   
    24   11   48 1    
    25   12   13 ar   
    26   12   77 1    
    27   13   14 ar   
    28   13   15 1    
    29   14   78 1    
    30   15   16 1    
    31   15   79 1    
    32   15   80 1    
    33   16   17 1    
    34   17   18 1    
    35   17   81 1    
    36   17   82 1    
    37   18   19 1    
    38   18   22 1    
    39   18   83 1    
    40   19   20 am   BACKBONE|DICT|INTERRES
    41   19   21 2    
    42   20   84 1    
    43   20   85 1    
    44   22   23 am   BACKBONE|DICT|INTERRES
    45   22   86 1    
    46   23   24 2    
    47   23   25 1    
    48   25   26 1    
    49   25   27 1    
    50   25   87 1    
    51   26   88 1    
    52   26   89 1    
    53   26   90 1    
    54   27   28 am   BACKBONE|DICT|INTERRES
    55   27   91 1    
    56   28   29 2    
    57   28   30 1    
    58   30   31 1    
    59   30   32 1    
    60   30   92 1    
    61   31   93 1    
    62   31   94 1    
    63   31   95 1    
    64   32   33 am   BACKBONE|DICT|INTERRES
    65   32   96 1    
    66   33   34 2    
    67   33   35 1    
    68   35   36 1    
    69   35   37 1    
    70   35   97 1    
    71   36   98 1    
    72   36   99 1    
    73   36  100 1    
    74   37   38 am   BACKBONE|DICT|INTERRES
    75   37  101 1    
    76   38   39 2    
    77   38   40 1    
    78   40   41 1    
    79   40   42 1    
    80   40  102 1    
    81   41  103 1    
    82   41  104 1    
    83   41  105 1    
    84   42   43 am   BACKBONE|DICT|INTERRES
    85   42  106 1    
    86   43   44 2    
    87   43   45 1    
    88   45   46 1    
    89   45   49 1    
    90   45  107 1    
    91   46   47 1    
    92   46  108 1    
    93   46  109 1    
    94   47   48 1    
    95   48  110 1    
    96   48  111 1    
    97   49   50 am   BACKBONE|DICT|INTERRES
    98   49  112 1    
    99   50   51 2    
   100   50   52 1    
   101   52   53 1    
   102   52   54 1    
   103   52  113 1    
   104   53  114 1    
   105   53  115 1    
   106   53  116 1    
   107   54   55 am   BACKBONE|DICT|INTERRES
   108   54  117 1    
   109   55   56 2    
   110   55   57 1    
   111   57   58 1    
   112   57   59 1    
   113   57  118 1    
   114   58  119 1    
   115   58  120 1    
   116   58  121 1    
   117   59   60 am   BACKBONE|DICT|INTERRES
   118   59  122 1    
   119   60   61 2    
   120   60   62 1    
   121   62   63 1    
   122   62   64 1    
   123   62  123 1    
   124   63  124 1    
   125   63  125 1    
   126   63  126 1    
   127   64   65 am   BACKBONE|DICT|INTERRES
   128   64  127 1    
   129   65   66 2    
@<TRIPOS>SUBSTRUCTURE
     1 UNK         1 GROUP             0       ****    0 ROOT    
