@<TRIPOS>MOLECULE
3R135
127   129    1
SMALL
USER_CHARGES


@<TRIPOS>ATOM
      1 CA        -85.6414   26.7070  -72.3271 C.3       0 UNK        -0.1998 
      2 C         -85.0196   27.7583  -73.2336 C.2       0 UNK         0.4909 
      3 O         -85.6681   28.2194  -74.1730 O.2       0 UNK        -0.5240 
      4 N         -83.7636   28.1369  -72.9639 N.am      1 UNK        -0.4739 
      5 CA        -82.9965   29.1300  -73.7295 C.3       1 UNK         0.0864 
      6 C6        -81.8938   29.8005  -72.8688 C.3       11 UNK        -0.0881 
      7 S7        -80.7975   28.6412  -71.9770 S.3       11 UNK        -0.2682 
      8 C8        -79.3772   28.5213  -73.1133 C.3       11 UNK         0.0289 
      9 C9        -78.1309   27.9705  -72.4288 C.ar      11 UNK        -0.0687 
     10 C10       -78.1786   26.7719  -71.7116 C.ar      11 UNK        -0.0823 
     11 C11       -77.0294   26.2572  -71.1065 C.ar      11 UNK        -0.0830 
     12 C12       -75.8230   26.9527  -71.2150 C.ar      11 UNK        -0.1021 
     13 C13       -75.7526   28.1499  -71.9327 C.ar      11 UNK        -0.0753 
     14 C14       -76.9135   28.6491  -72.5400 C.ar      11 UNK        -0.0933 
     15 C15       -74.3955   28.8307  -72.0990 C.3       11 UNK         0.0166 
     16 S16       -74.4809   30.6452  -72.2721 S.3       11 UNK        -0.2615 
     17 C17       -72.9840   30.9396  -73.2687 C.3       11 UNK        -0.0865 
     18 CA        -73.2450   30.7775  -74.7987 C.3       10 UNK         0.0862 
     19 C         -73.7543   32.0773  -75.4958 C.2       10 UNK         0.5551 
     20 N         -73.4474   32.2995  -76.7684 N.am      10 UNK        -0.7319 
     21 O         -74.4541   32.8861  -74.8917 O.2       10 UNK        -0.5018 
     22 N         -72.1250   30.1096  -75.4830 N.am      10 UNK        -0.4509 
     23 C         -70.8663   30.5696  -75.5404 C.2       10 UNK         0.4899 
     24 O         -70.5098   31.6408  -75.0461 O.2       10 UNK        -0.4839 
     25 CA        -69.8326   29.6815  -76.2645 C.3       9 UNK         0.0222 
     26 CB        -68.3760   30.0875  -75.9544 C.3       9 UNK        -0.1966 
     27 N         -70.0208   28.2447  -76.0282 N.am      9 UNK        -0.4218 
     28 C         -70.0534   27.5929  -74.8560 C.2       9 UNK         0.5020 
     29 O         -69.9206   28.1411  -73.7601 O.2       9 UNK        -0.5274 
     30 CA        -70.2850   26.0677  -74.9332 C.3       8 UNK         0.0270 
     31 CB        -70.4253   25.4178  -73.5436 C.3       8 UNK        -0.1976 
     32 N         -71.4600   25.7254  -75.7429 N.am      8 UNK        -0.4313 
     33 C         -71.5047   25.7387  -77.0848 C.2       8 UNK         0.5041 
     34 O         -70.5295   26.0174  -77.7843 O.2       8 UNK        -0.5577 
     35 CA        -72.8496   25.4446  -77.7748 C.3       7 UNK         0.0284 
     36 CB        -72.8658   24.0088  -78.3214 C.3       7 UNK        -0.1958 
     37 N         -74.0160   25.6527  -76.9141 N.am      7 UNK        -0.4454 
     38 C         -74.3913   26.8365  -76.4036 C.2       7 UNK         0.5089 
     39 O         -73.8185   27.8986  -76.6532 O.2       7 UNK        -0.5125 
     40 CA        -75.5705   26.8347  -75.4122 C.3       6 UNK         0.0408 
     41 CB        -76.8593   27.2843  -76.1151 C.3       6 UNK        -0.1791 
     42 N         -75.7914   25.5422  -74.7493 N.am      6 UNK        -0.4762 
     43 C         -74.8912   24.9207  -73.9669 C.2       6 UNK         0.5007 
     44 O         -73.8061   25.4217  -73.6693 O.2       6 UNK        -0.5032 
     45 CA        -75.1775   23.4691  -73.5172 C.3       5 UNK         0.0783 
     46 C46       -75.4186   23.3396  -71.9880 C.3       11 UNK        -0.0857 
     47 S47       -77.1612   23.5184  -71.4615 S.3       11 UNK        -0.2512 
     48 C48       -77.0986   24.9481  -70.3387 C.3       11 UNK         0.0225 
     49 N         -76.2088   22.7897  -74.3079 N.am      5 UNK        -0.4615 
     50 C         -76.1445   22.5255  -75.6185 C.2       4 UNK         0.5053 
     51 O         -75.1592   22.7720  -76.3135 O.2       4 UNK        -0.5105 
     52 CA        -77.4062   21.9360  -76.2756 C.3       4 UNK         0.0263 
     53 CB        -77.2926   20.4061  -76.3686 C.3       4 UNK        -0.1981 
     54 N         -78.6714   22.2901  -75.6143 N.am      4 UNK        -0.4224 
     55 C         -79.1191   23.5383  -75.4146 C.2       3 UNK         0.4895 
     56 O         -78.4703   24.5508  -75.6862 O.2       3 UNK        -0.5091 
     57 CA        -80.5055   23.6740  -74.7624 C.3       3 UNK         0.0250 
     58 CB        -80.3940   23.5993  -73.2323 C.3       3 UNK        -0.1996 
     59 N         -81.1407   24.9412  -75.1295 N.am      3 UNK        -0.4254 
     60 C         -81.6617   25.2039  -76.3361 C.2       2 UNK         0.5004 
     61 O         -81.7501   24.3637  -77.2336 O.2       2 UNK        -0.5226 
     62 CA        -82.1784   26.6325  -76.5774 C.3       2 UNK         0.0269 
     63 CB        -83.3496   26.6798  -77.5795 C.3       2 UNK        -0.1926 
     64 N         -82.5760   27.2871  -75.3273 N.am      2 UNK        -0.4687 
     65 C         -82.4444   28.5956  -75.0715 C.2       1 UNK         0.5165 
     66 O         -81.9145   29.3848  -75.8554 O.2       1 UNK        -0.5079 
     67 H67       -86.5358   27.1059  -71.8494 H         1 UNK         0.0900 
     68 H68       -84.9543   26.3852  -71.5447 H         1 UNK         0.0900 
     69 H69       -85.9275   25.8311  -72.9088 H         1 UNK         0.0900 
     70 H70       -83.2727   27.7330  -72.1775 H         1 UNK         0.2959 
     71 H71       -83.6911   29.9241  -74.0139 H         1 UNK         0.1079 
     72 H72       -81.3000   30.5003  -73.4601 H         1 UNK         0.0837 
     73 H73       -82.3761   30.4187  -72.1100 H         1 UNK         0.0837 
     74 H74       -79.1702   29.5066  -73.5334 H         1 UNK         0.0685 
     75 H75       -79.6407   27.8741  -73.9504 H         1 UNK         0.0685 
     76 H76       -79.1137   26.2378  -71.6238 H         1 UNK         0.1434 
     77 H77       -74.9288   26.5477  -70.7611 H         1 UNK         0.1329 
     78 H78       -76.8693   29.5596  -73.1205 H         1 UNK         0.1335 
     79 H79       -73.7511   28.6024  -71.2486 H         1 UNK         0.0680 
     80 H80       -73.9090   28.3996  -72.9750 H         1 UNK         0.0680 
     81 H81       -72.5872   31.9305  -73.0403 H         1 UNK         0.1032 
     82 H82       -72.2173   30.2404  -72.9293 H         1 UNK         0.1032 
     83 H83       -74.0684   30.0731  -74.9214 H         1 UNK         0.0461 
     84 H84       -73.7825   33.1357  -77.2203 H         1 UNK         0.3453 
     85 H85       -72.8865   31.6370  -77.2794 H         1 UNK         0.3453 
     86 H86       -72.3631   29.2390  -75.9461 H         1 UNK         0.2984 
     87 H87       -69.9976   29.8367  -77.3315 H         1 UNK         0.0554 
     88 H88       -67.6654   29.4669  -76.5002 H         1 UNK         0.0847 
     89 H89       -68.1509   29.9990  -74.8909 H         1 UNK         0.0847 
     90 H90       -68.1862   31.1223  -76.2422 H         1 UNK         0.0847 
     91 H91       -70.1460   27.6691  -76.8583 H         1 UNK         0.3141 
     92 H92       -69.4010   25.6363  -75.4078 H         1 UNK         0.0743 
     93 H93       -69.5237   25.5701  -72.9489 H         1 UNK         0.0784 
     94 H94       -71.2593   25.8412  -72.9827 H         1 UNK         0.0784 
     95 H95       -70.5838   24.3420  -73.6203 H         1 UNK         0.0784 
     96 H96       -72.3163   25.5482  -75.2290 H         1 UNK         0.3213 
     97 H97       -72.9371   26.1325  -78.6185 H         1 UNK         0.0855 
     98 H98       -72.7600   23.2727  -77.5234 H         1 UNK         0.0814 
     99 H99       -72.0451   23.8487  -79.0222 H         1 UNK         0.0814 
    100 H100      -73.7927   23.7948  -78.8539 H         1 UNK         0.0814 
    101 H101      -74.5363   24.8234  -76.6486 H         1 UNK         0.3105 
    102 H102      -75.3360   27.5662  -74.6409 H         1 UNK         0.0547 
    103 H103      -77.1354   26.6052  -76.9226 H         1 UNK         0.0837 
    104 H104      -77.6952   27.3306  -75.4181 H         1 UNK         0.0837 
    105 H105      -76.7417   28.2784  -76.5484 H         1 UNK         0.0837 
    106 H106      -76.6668   25.0720  -74.9626 H         1 UNK         0.3020 
    107 H107      -74.2456   22.9387  -73.7276 H         1 UNK         0.1245 
    108 H108      -74.7806   24.0251  -71.4270 H         1 UNK         0.0781 
    109 H109      -75.1057   22.3436  -71.6710 H         1 UNK         0.0781 
    110 H110      -76.2560   24.8468  -69.6529 H         1 UNK         0.0836 
    111 H111      -77.9953   24.9442  -69.7172 H         1 UNK         0.0836 
    112 H112      -77.0634   22.5792  -73.8130 H         1 UNK         0.3022 
    113 H113      -77.4510   22.3368  -77.2904 H         1 UNK         0.0747 
    114 H114      -78.1219   19.9787  -76.9326 H         1 UNK         0.0793 
    115 H115      -76.3733   20.1130  -76.8781 H         1 UNK         0.0793 
    116 H116      -77.2803   19.9414  -75.3818 H         1 UNK         0.0793 
    117 H117      -79.2619   21.5178  -75.3399 H         1 UNK         0.3047 
    118 H118      -81.1388   22.8544  -75.1094 H         1 UNK         0.0822 
    119 H119      -79.9653   22.6482  -72.9139 H         1 UNK         0.0807 
    120 H120      -81.3706   23.6880  -72.7561 H         1 UNK         0.0807 
    121 H121      -79.7557   24.3900  -72.8402 H         1 UNK         0.0807 
    122 H122      -81.0510   25.6998  -74.4708 H         1 UNK         0.2946 
    123 H123      -81.3353   27.1733  -77.0140 H         1 UNK         0.1144 
    124 H124      -83.0673   26.2463  -78.5399 H         1 UNK         0.0793 
    125 H125      -83.6656   27.7050  -77.7730 H         1 UNK         0.0793 
    126 H126      -84.2141   26.1271  -77.2104 H         1 UNK         0.0793 
    127 H127      -83.0380   26.7090  -74.6390 H         1 UNK         0.2896 
@<TRIPOS>BOND
     1    1    2 1    
     2    1   67 1    
     3    1   68 1    
     4    1   69 1    
     5    2    3 2    
     6    2    4 am   BACKBONE|DICT|INTERRES
     7    4    5 1    
     8    4   70 1    
     9    5    6 1    
    10    5   65 1    
    11    5   71 1    
    12    6    7 1    
    13    6   72 1    
    14    6   73 1    
    15    7    8 1    
    16    8    9 1    
    17    8   74 1    
    18    8   75 1    
    19    9   10 ar   
    20    9   14 ar   
    21   10   11 ar   
    22   10   76 1    
    23   11   12 ar   
    24   11   48 1    
    25   12   13 ar   
    26   12   77 1    
    27   13   14 ar   
    28   13   15 1    
    29   14   78 1    
    30   15   16 1    
    31   15   79 1    
    32   15   80 1    
    33   16   17 1    
    34   17   18 1    
    35   17   81 1    
    36   17   82 1    
    37   18   19 1    
    38   18   22 1    
    39   18   83 1    
    40   19   20 am   BACKBONE|DICT|INTERRES
    41   19   21 2    
    42   20   84 1    
    43   20   85 1    
    44   22   23 am   BACKBONE|DICT|INTERRES
    45   22   86 1    
    46   23   24 2    
    47   23   25 1    
    48   25   26 1    
    49   25   27 1    
    50   25   87 1    
    51   26   88 1    
    52   26   89 1    
    53   26   90 1    
    54   27   28 am   BACKBONE|DICT|INTERRES
    55   27   91 1    
    56   28   29 2    
    57   28   30 1    
    58   30   31 1    
    59   30   32 1    
    60   30   92 1    
    61   31   93 1    
    62   31   94 1    
    63   31   95 1    
    64   32   33 am   BACKBONE|DICT|INTERRES
    65   32   96 1    
    66   33   34 2    
    67   33   35 1    
    68   35   36 1    
    69   35   37 1    
    70   35   97 1    
    71   36   98 1    
    72   36   99 1    
    73   36  100 1    
    74   37   38 am   BACKBONE|DICT|INTERRES
    75   37  101 1    
    76   38   39 2    
    77   38   40 1    
    78   40   41 1    
    79   40   42 1    
    80   40  102 1    
    81   41  103 1    
    82   41  104 1    
    83   41  105 1    
    84   42   43 am   BACKBONE|DICT|INTERRES
    85   42  106 1    
    86   43   44 2    
    87   43   45 1    
    88   45   46 1    
    89   45   49 1    
    90   45  107 1    
    91   46   47 1    
    92   46  108 1    
    93   46  109 1    
    94   47   48 1    
    95   48  110 1    
    96   48  111 1    
    97   49   50 am   BACKBONE|DICT|INTERRES
    98   49  112 1    
    99   50   51 2    
   100   50   52 1    
   101   52   53 1    
   102   52   54 1    
   103   52  113 1    
   104   53  114 1    
   105   53  115 1    
   106   53  116 1    
   107   54   55 am   BACKBONE|DICT|INTERRES
   108   54  117 1    
   109   55   56 2    
   110   55   57 1    
   111   57   58 1    
   112   57   59 1    
   113   57  118 1    
   114   58  119 1    
   115   58  120 1    
   116   58  121 1    
   117   59   60 am   BACKBONE|DICT|INTERRES
   118   59  122 1    
   119   60   61 2    
   120   60   62 1    
   121   62   63 1    
   122   62   64 1    
   123   62  123 1    
   124   63  124 1    
   125   63  125 1    
   126   63  126 1    
   127   64   65 am   BACKBONE|DICT|INTERRES
   128   64  127 1    
   129   65   66 2    
@<TRIPOS>SUBSTRUCTURE
     1 UNK         1 GROUP             0       ****    0 ROOT    
