@<TRIPOS>MOLECULE
3R135
127   129    1
SMALL
USER_CHARGES


@<TRIPOS>ATOM
      1 CA        -85.4635   29.8333  -74.7494 C.3       0 UNK        -0.1998 
      2 C         -84.0900   29.1815  -74.8109 C.2       0 UNK         0.4909 
      3 O         -83.5877   28.9137  -75.9034 O.2       0 UNK        -0.5240 
      4 N         -83.4758   28.9336  -73.6475 N.am      1 UNK        -0.4739 
      5 CA        -82.1728   28.2714  -73.5125 C.3       1 UNK         0.0864 
      6 C6        -81.5628   28.4849  -72.1062 C.3       11 UNK        -0.0881 
      7 S7        -81.2409   30.2491  -71.7662 S.3       11 UNK        -0.2682 
      8 C8        -80.2378   30.1593  -70.2492 C.3       11 UNK         0.0289 
      9 C9        -78.8616   29.5625  -70.5074 C.ar      11 UNK        -0.0687 
     10 C10       -78.5814   28.2466  -70.1267 C.ar      11 UNK        -0.0823 
     11 C11       -77.3224   27.6867  -70.3637 C.ar      11 UNK        -0.0830 
     12 C12       -76.3362   28.4672  -70.9788 C.ar      11 UNK        -0.1021 
     13 C13       -76.6031   29.7818  -71.3677 C.ar      11 UNK        -0.0753 
     14 C14       -77.8664   30.3279  -71.1226 C.ar      11 UNK        -0.0933 
     15 C15       -75.5298   30.6030  -72.0645 C.3       11 UNK         0.0166 
     16 S16       -75.8628   30.7014  -73.8468 S.3       11 UNK        -0.2615 
     17 C17       -74.3187   31.4428  -74.4743 C.3       11 UNK        -0.0865 
     18 CA        -73.5427   30.4339  -75.3646 C.3       10 UNK         0.0862 
     19 C         -72.4950   31.0929  -76.3035 C.2       10 UNK         0.5551 
     20 N         -72.0359   30.3589  -77.3078 N.am      10 UNK        -0.7319 
     21 O         -72.1047   32.2464  -76.1357 O.2       10 UNK        -0.5018 
     22 N         -72.9857   29.2935  -74.6109 N.am      10 UNK        -0.4509 
     23 C         -71.9569   29.3533  -73.7529 C.2       10 UNK         0.4899 
     24 O         -71.3809   30.3967  -73.4437 O.2       10 UNK        -0.4839 
     25 CA        -71.4739   28.0438  -73.1133 C.3       9 UNK         0.0222 
     26 CB        -72.1774   27.8225  -71.7641 C.3       9 UNK        -0.1966 
     27 N         -71.6959   26.8675  -73.9591 N.am      9 UNK        -0.4218 
     28 C         -70.7271   26.0738  -74.4336 C.2       9 UNK         0.5020 
     29 O         -69.5239   26.3207  -74.3348 O.2       9 UNK        -0.5274 
     30 CA        -71.1623   24.7463  -75.0771 C.3       8 UNK         0.0270 
     31 CB        -71.6215   23.7522  -73.9970 C.3       8 UNK        -0.1976 
     32 N         -72.2073   24.8864  -76.0926 N.am      8 UNK        -0.4313 
     33 C         -72.0028   25.3768  -77.3231 C.2       8 UNK         0.5041 
     34 O         -70.9212   25.8165  -77.7157 O.2       8 UNK        -0.5577 
     35 CA        -73.2011   25.3589  -78.2893 C.3       7 UNK         0.0284 
     36 CB        -73.4216   23.9520  -78.8688 C.3       7 UNK        -0.1958 
     37 N         -74.4341   25.8368  -77.6630 N.am      7 UNK        -0.4454 
     38 C         -74.6384   27.1104  -77.3018 C.2       7 UNK         0.5089 
     39 O         -73.8430   28.0188  -77.5407 O.2       7 UNK        -0.5125 
     40 CA        -75.9214   27.4170  -76.5065 C.3       6 UNK         0.0408 
     41 CB        -77.1112   27.6398  -77.4512 C.3       6 UNK        -0.1791 
     42 N         -76.2467   26.3756  -75.5301 N.am      6 UNK        -0.4762 
     43 C         -75.4696   26.0365  -74.4909 C.2       6 UNK         0.5007 
     44 O         -74.4236   26.6207  -74.2098 O.2       6 UNK        -0.5032 
     45 CA        -75.8784   24.7883  -73.6846 C.3       5 UNK         0.0783 
     46 C46       -76.8161   25.1175  -72.4949 C.3       11 UNK        -0.0857 
     47 S47       -75.8633   25.3405  -70.9569 S.3       11 UNK        -0.2512 
     48 C48       -77.0488   26.2528  -69.9129 C.3       11 UNK         0.0225 
     49 N         -76.4224   23.7428  -74.5543 N.am      5 UNK        -0.4615 
     50 C         -75.6749   23.0109  -75.3914 C.2       4 UNK         0.5053 
     51 O         -74.4580   23.1456  -75.5134 O.2       4 UNK        -0.5105 
     52 CA        -76.4126   21.9830  -76.2627 C.3       4 UNK         0.0263 
     53 CB        -76.6771   20.6916  -75.4726 C.3       4 UNK        -0.1981 
     54 N         -77.6727   22.5038  -76.7961 N.am      4 UNK        -0.4224 
     55 C         -77.7551   23.5060  -77.6821 C.2       3 UNK         0.4895 
     56 O         -76.7772   24.0736  -78.1691 O.2       3 UNK        -0.5091 
     57 CA        -79.1688   23.9813  -78.0559 C.3       3 UNK         0.0250 
     58 CB        -79.7584   23.1000  -79.1687 C.3       3 UNK        -0.1996 
     59 N         -80.1007   24.0363  -76.9217 N.am      3 UNK        -0.4254 
     60 C         -79.9292   24.8017  -75.8353 C.2       2 UNK         0.5004 
     61 O         -78.9186   25.4743  -75.6189 O.2       2 UNK        -0.5226 
     62 CA        -81.0574   24.8212  -74.8027 C.3       2 UNK         0.0269 
     63 CB        -80.7577   23.8627  -73.6368 C.3       2 UNK        -0.1926 
     64 N         -81.1639   26.1920  -74.3138 N.am      2 UNK        -0.4687 
     65 C         -82.2747   26.7671  -73.8443 C.2       1 UNK         0.5165 
     66 O         -83.3324   26.1583  -73.6584 O.2       1 UNK        -0.5079 
     67 H67       -85.4533   30.7817  -75.2859 H         1 UNK         0.0900 
     68 H68       -85.7769   30.0275  -73.7237 H         1 UNK         0.0900 
     69 H69       -86.2066   29.1860  -75.2142 H         1 UNK         0.0900 
     70 H70       -83.9373   29.1664  -72.7800 H         1 UNK         0.2959 
     71 H71       -81.4991   28.7212  -74.2460 H         1 UNK         0.1079 
     72 H72       -82.2190   28.0865  -71.3299 H         1 UNK         0.0837 
     73 H73       -80.6199   27.9421  -72.0233 H         1 UNK         0.0837 
     74 H74       -80.1233   31.1656  -69.8436 H         1 UNK         0.0685 
     75 H75       -80.7763   29.5859  -69.4929 H         1 UNK         0.0685 
     76 H76       -79.3487   27.6561  -69.6443 H         1 UNK         0.1434 
     77 H77       -75.3570   28.0520  -71.1634 H         1 UNK         0.1329 
     78 H78       -78.0804   31.3434  -71.4271 H         1 UNK         0.1335 
     79 H79       -75.4957   31.6085  -71.6426 H         1 UNK         0.0680 
     80 H80       -74.5450   30.1608  -71.9042 H         1 UNK         0.0680 
     81 H81       -73.6975   31.8075  -73.6550 H         1 UNK         0.1032 
     82 H82       -74.6001   32.3250  -75.0523 H         1 UNK         0.1032 
     83 H83       -74.2826   30.0205  -76.0463 H         1 UNK         0.0461 
     84 H84       -71.3550   30.7428  -77.9431 H         1 UNK         0.3453 
     85 H85       -72.4209   29.4322  -77.4622 H         1 UNK         0.3453 
     86 H86       -73.4248   28.3976  -74.7803 H         1 UNK         0.2984 
     87 H87       -70.4081   28.1688  -72.9116 H         1 UNK         0.0554 
     88 H88       -71.7572   26.9669  -71.2353 H         1 UNK         0.0847 
     89 H89       -73.2435   27.6403  -71.8955 H         1 UNK         0.0847 
     90 H90       -72.0690   28.6915  -71.1137 H         1 UNK         0.0847 
     91 H91       -72.6702   26.6044  -74.1061 H         1 UNK         0.3141 
     92 H92       -70.2835   24.3170  -75.5636 H         1 UNK         0.0743 
     93 H93       -70.8471   23.6097  -73.2420 H         1 UNK         0.0784 
     94 H94       -72.5187   24.0976  -73.4829 H         1 UNK         0.0784 
     95 H95       -71.8387   22.7737  -74.4261 H         1 UNK         0.0784 
     96 H96       -73.1125   24.4758  -75.8768 H         1 UNK         0.3213 
     97 H97       -72.9652   26.0285  -79.1196 H         1 UNK         0.0855 
     98 H98       -72.5200   23.5888  -79.3636 H         1 UNK         0.0814 
     99 H99       -74.2215   23.9508  -79.6096 H         1 UNK         0.0814 
    100 H100      -73.6836   23.2290  -78.0962 H         1 UNK         0.0814 
    101 H101      -75.1713   25.1573  -77.5042 H         1 UNK         0.3105 
    102 H102      -75.7640   28.3389  -75.9470 H         1 UNK         0.0547 
    103 H103      -76.9047   28.4493  -78.1523 H         1 UNK         0.0837 
    104 H104      -77.3341   26.7489  -78.0377 H         1 UNK         0.0837 
    105 H105      -78.0108   27.9104  -76.8983 H         1 UNK         0.0837 
    106 H106      -77.1311   25.8871  -75.6602 H         1 UNK         0.3020 
    107 H107      -74.9499   24.3790  -73.2793 H         1 UNK         0.1245 
    108 H108      -77.5100   24.2960  -72.3118 H         1 UNK         0.0781 
    109 H109      -77.4372   25.9939  -72.6932 H         1 UNK         0.0781 
    110 H110      -76.6587   26.2836  -68.8950 H         1 UNK         0.0836 
    111 H111      -77.9783   25.6827  -69.8697 H         1 UNK         0.0836 
    112 H112      -77.4238   23.6216  -74.5547 H         1 UNK         0.3022 
    113 H113      -75.7639   21.7395  -77.1071 H         1 UNK         0.0747 
    114 H114      -77.1262   19.9253  -76.1046 H         1 UNK         0.0793 
    115 H115      -75.7468   20.2795  -75.0788 H         1 UNK         0.0793 
    116 H116      -77.3427   20.8614  -74.6253 H         1 UNK         0.0793 
    117 H117      -78.5278   22.0929  -76.4511 H         1 UNK         0.3047 
    118 H118      -79.0736   24.9968  -78.4460 H         1 UNK         0.0822 
    119 H119      -80.7116   23.4927  -79.5232 H         1 UNK         0.0807 
    120 H120      -79.9209   22.0752  -78.8325 H         1 UNK         0.0807 
    121 H121      -79.0886   23.0583  -80.0291 H         1 UNK         0.0807 
    122 H122      -80.9541   23.5036  -77.0145 H         1 UNK         0.2946 
    123 H123      -81.9925   24.5320  -75.2886 H         1 UNK         0.1144 
    124 H124      -81.5685   23.8614  -72.9081 H         1 UNK         0.0793 
    125 H125      -79.8418   24.1390  -73.1141 H         1 UNK         0.0793 
    126 H126      -80.6396   22.8378  -73.9907 H         1 UNK         0.0793 
    127 H127      -80.3267   26.7430  -74.4616 H         1 UNK         0.2896 
@<TRIPOS>BOND
     1    1    2 1    
     2    1   67 1    
     3    1   68 1    
     4    1   69 1    
     5    2    3 2    
     6    2    4 am   BACKBONE|DICT|INTERRES
     7    4    5 1    
     8    4   70 1    
     9    5    6 1    
    10    5   65 1    
    11    5   71 1    
    12    6    7 1    
    13    6   72 1    
    14    6   73 1    
    15    7    8 1    
    16    8    9 1    
    17    8   74 1    
    18    8   75 1    
    19    9   10 ar   
    20    9   14 ar   
    21   10   11 ar   
    22   10   76 1    
    23   11   12 ar   
    24   11   48 1    
    25   12   13 ar   
    26   12   77 1    
    27   13   14 ar   
    28   13   15 1    
    29   14   78 1    
    30   15   16 1    
    31   15   79 1    
    32   15   80 1    
    33   16   17 1    
    34   17   18 1    
    35   17   81 1    
    36   17   82 1    
    37   18   19 1    
    38   18   22 1    
    39   18   83 1    
    40   19   20 am   BACKBONE|DICT|INTERRES
    41   19   21 2    
    42   20   84 1    
    43   20   85 1    
    44   22   23 am   BACKBONE|DICT|INTERRES
    45   22   86 1    
    46   23   24 2    
    47   23   25 1    
    48   25   26 1    
    49   25   27 1    
    50   25   87 1    
    51   26   88 1    
    52   26   89 1    
    53   26   90 1    
    54   27   28 am   BACKBONE|DICT|INTERRES
    55   27   91 1    
    56   28   29 2    
    57   28   30 1    
    58   30   31 1    
    59   30   32 1    
    60   30   92 1    
    61   31   93 1    
    62   31   94 1    
    63   31   95 1    
    64   32   33 am   BACKBONE|DICT|INTERRES
    65   32   96 1    
    66   33   34 2    
    67   33   35 1    
    68   35   36 1    
    69   35   37 1    
    70   35   97 1    
    71   36   98 1    
    72   36   99 1    
    73   36  100 1    
    74   37   38 am   BACKBONE|DICT|INTERRES
    75   37  101 1    
    76   38   39 2    
    77   38   40 1    
    78   40   41 1    
    79   40   42 1    
    80   40  102 1    
    81   41  103 1    
    82   41  104 1    
    83   41  105 1    
    84   42   43 am   BACKBONE|DICT|INTERRES
    85   42  106 1    
    86   43   44 2    
    87   43   45 1    
    88   45   46 1    
    89   45   49 1    
    90   45  107 1    
    91   46   47 1    
    92   46  108 1    
    93   46  109 1    
    94   47   48 1    
    95   48  110 1    
    96   48  111 1    
    97   49   50 am   BACKBONE|DICT|INTERRES
    98   49  112 1    
    99   50   51 2    
   100   50   52 1    
   101   52   53 1    
   102   52   54 1    
   103   52  113 1    
   104   53  114 1    
   105   53  115 1    
   106   53  116 1    
   107   54   55 am   BACKBONE|DICT|INTERRES
   108   54  117 1    
   109   55   56 2    
   110   55   57 1    
   111   57   58 1    
   112   57   59 1    
   113   57  118 1    
   114   58  119 1    
   115   58  120 1    
   116   58  121 1    
   117   59   60 am   BACKBONE|DICT|INTERRES
   118   59  122 1    
   119   60   61 2    
   120   60   62 1    
   121   62   63 1    
   122   62   64 1    
   123   62  123 1    
   124   63  124 1    
   125   63  125 1    
   126   63  126 1    
   127   64   65 am   BACKBONE|DICT|INTERRES
   128   64  127 1    
   129   65   66 2    
@<TRIPOS>SUBSTRUCTURE
     1 UNK         1 GROUP             0       ****    0 ROOT    
