@<TRIPOS>MOLECULE
3R135
127   129    1
SMALL
USER_CHARGES


@<TRIPOS>ATOM
      1 CA        -84.1921   30.4964  -75.0130 C.3       0 UNK        -0.1998 
      2 C         -83.0843   29.5829  -75.5152 C.2       0 UNK         0.4909 
      3 O         -82.9272   29.4174  -76.7251 O.2       0 UNK        -0.5240 
      4 N         -82.3140   28.9880  -74.5949 N.am      1 UNK        -0.4739 
      5 CA        -81.2186   28.0556  -74.8924 C.3       1 UNK         0.0864 
      6 C6        -80.2649   27.8935  -73.6804 C.3       11 UNK        -0.0881 
      7 S7        -81.0902   27.2755  -72.1667 S.3       11 UNK        -0.2682 
      8 C8        -80.2758   28.2558  -70.8639 C.3       11 UNK         0.0289 
      9 C9        -78.7782   27.9881  -70.7998 C.ar      11 UNK        -0.0687 
     10 C10       -78.3066   26.7031  -70.5160 C.ar      11 UNK        -0.0823 
     11 C11       -76.9352   26.4375  -70.5087 C.ar      11 UNK        -0.0830 
     12 C12       -76.0290   27.4792  -70.7323 C.ar      11 UNK        -0.1021 
     13 C13       -76.4880   28.7682  -71.0133 C.ar      11 UNK        -0.0753 
     14 C14       -77.8638   29.0175  -71.0465 C.ar      11 UNK        -0.0933 
     15 C15       -75.4978   29.8852  -71.3012 C.3       11 UNK         0.0166 
     16 S16       -74.9525   29.8555  -73.0390 S.3       11 UNK        -0.2615 
     17 C17       -74.0980   31.4684  -73.1495 C.3       11 UNK        -0.0865 
     18 CA        -72.5627   31.3858  -73.3606 C.3       10 UNK         0.0862 
     19 C         -71.7929   30.8231  -72.1280 C.2       10 UNK         0.5551 
     20 N         -70.8201   29.9337  -72.2926 N.am      10 UNK        -0.7319 
     21 O         -72.0694   31.2179  -70.9979 O.2       10 UNK        -0.5018 
     22 N         -72.2261   30.7368  -74.6372 N.am      10 UNK        -0.4509 
     23 C         -71.2281   31.1126  -75.4463 C.2       10 UNK         0.4899 
     24 O         -70.5186   32.1004  -75.2472 O.2       10 UNK        -0.4839 
     25 CA        -70.9788   30.2166  -76.6760 C.3       9 UNK         0.0222 
     26 CB        -69.6919   30.5915  -77.4411 C.3       9 UNK        -0.1966 
     27 N         -70.9832   28.7819  -76.3597 N.am      9 UNK        -0.4218 
     28 C         -70.2100   28.1442  -75.4632 C.2       9 UNK         0.5020 
     29 O         -69.4074   28.7195  -74.7268 O.2       9 UNK        -0.5274 
     30 CA        -70.3604   26.6162  -75.3260 C.3       8 UNK         0.0270 
     31 CB        -70.8607   26.2529  -73.9166 C.3       8 UNK        -0.1976 
     32 N         -71.2594   26.0283  -76.3225 N.am      8 UNK        -0.4313 
     33 C         -70.9232   25.7556  -77.5927 C.2       8 UNK         0.5041 
     34 O         -69.7822   25.8900  -78.0362 O.2       8 UNK        -0.5577 
     35 CA        -72.0421   25.2817  -78.5449 C.3       7 UNK         0.0284 
     36 CB        -72.0091   23.7517  -78.6902 C.3       7 UNK        -0.1958 
     37 N         -73.3908   25.6953  -78.1424 N.am      7 UNK        -0.4454 
     38 C         -73.8024   26.9623  -77.9934 C.2       7 UNK         0.5089 
     39 O         -73.1061   27.9406  -78.2644 O.2       7 UNK        -0.5125 
     40 CA        -75.1934   27.1842  -77.3692 C.3       6 UNK         0.0408 
     41 CB        -76.2396   27.4212  -78.4692 C.3       6 UNK        -0.1791 
     42 N         -75.6693   26.1193  -76.4738 N.am      6 UNK        -0.4762 
     43 C         -75.0118   25.5872  -75.4295 C.2       6 UNK         0.5007 
     44 O         -73.8482   25.8727  -75.1504 O.2       6 UNK        -0.5032 
     45 CA        -75.7655   24.5853  -74.5276 C.3       5 UNK         0.0783 
     46 C46       -75.8636   25.1702  -73.1010 C.3       11 UNK        -0.0857 
     47 S47       -76.6459   24.0535  -71.8886 S.3       11 UNK        -0.2512 
     48 C48       -76.4345   25.0098  -70.3470 C.3       11 UNK         0.0225 
     49 N         -77.0853   24.2203  -75.0572 N.am      5 UNK        -0.4615 
     50 C         -77.3038   23.3744  -76.0717 C.2       4 UNK         0.5053 
     51 O         -76.3994   22.8060  -76.6848 O.2       4 UNK        -0.5105 
     52 CA        -78.7718   23.1733  -76.4956 C.3       4 UNK         0.0263 
     53 CB        -79.0104   21.8388  -77.2345 C.3       4 UNK        -0.1981 
     54 N         -79.7304   23.3603  -75.3978 N.am      4 UNK        -0.4224 
     55 C         -79.8872   22.5890  -74.3073 C.2       3 UNK         0.4895 
     56 O         -79.2104   21.5874  -74.0734 O.2       3 UNK        -0.5091 
     57 CA        -80.9756   22.9963  -73.2903 C.3       3 UNK         0.0250 
     58 CB        -80.3286   23.5491  -72.0099 C.3       3 UNK        -0.1996 
     59 N         -81.9252   23.9888  -73.7996 N.am      3 UNK        -0.4254 
     60 C         -82.8311   23.7773  -74.7658 C.2       2 UNK         0.5004 
     61 O         -83.0612   22.6712  -75.2549 O.2       2 UNK        -0.5226 
     62 CA        -83.5817   25.0106  -75.3081 C.3       2 UNK         0.0269 
     63 CB        -85.0249   25.0383  -74.7793 C.3       2 UNK        -0.1926 
     64 N         -82.9402   26.2975  -75.0067 N.am      2 UNK        -0.4687 
     65 C         -81.7132   26.6814  -75.3950 C.2       1 UNK         0.5165 
     66 O         -80.9640   25.9771  -76.0745 O.2       1 UNK        -0.5079 
     67 H67       -84.0524   31.5044  -75.4025 H         1 UNK         0.0900 
     68 H68       -85.1615   30.1313  -75.3512 H         1 UNK         0.0900 
     69 H69       -84.2119   30.5534  -73.9248 H         1 UNK         0.0900 
     70 H70       -82.4830   29.1569  -73.6128 H         1 UNK         0.2959 
     71 H71       -80.6364   28.4841  -75.7116 H         1 UNK         0.1079 
     72 H72       -79.8011   28.8572  -73.4643 H         1 UNK         0.0837 
     73 H73       -79.4376   27.2231  -73.9227 H         1 UNK         0.0837 
     74 H74       -80.7234   28.0052  -69.9013 H         1 UNK         0.0685 
     75 H75       -80.4795   29.3144  -71.0328 H         1 UNK         0.0685 
     76 H76       -79.0101   25.8988  -70.3499 H         1 UNK         0.1434 
     77 H77       -74.9660   27.2795  -70.7370 H         1 UNK         0.1329 
     78 H78       -78.2216   30.0117  -71.2767 H         1 UNK         0.1335 
     79 H79       -74.6289   29.7946  -70.6473 H         1 UNK         0.0680 
     80 H80       -75.9557   30.8497  -71.0762 H         1 UNK         0.0680 
     81 H81       -74.3204   32.0713  -72.2673 H         1 UNK         0.1032 
     82 H82       -74.5425   32.0169  -73.9813 H         1 UNK         0.1032 
     83 H83       -72.2288   32.4231  -73.4233 H         1 UNK         0.0461 
     84 H84       -70.5280   29.6378  -73.2157 H         1 UNK         0.3453 
     85 H85       -70.3310   29.5910  -71.4815 H         1 UNK         0.3453 
     86 H86       -72.7476   29.8998  -74.8541 H         1 UNK         0.2984 
     87 H87       -71.8212   30.3828  -77.3490 H         1 UNK         0.0554 
     88 H88       -69.7245   31.6278  -77.7797 H         1 UNK         0.0847 
     89 H89       -69.5607   29.9675  -78.3252 H         1 UNK         0.0847 
     90 H90       -68.8039   30.4804  -76.8177 H         1 UNK         0.0847 
     91 H91       -71.6305   28.2299  -76.9139 H         1 UNK         0.3141 
     92 H92       -69.3675   26.1802  -75.4538 H         1 UNK         0.0743 
     93 H93       -70.9945   25.1768  -73.8051 H         1 UNK         0.0784 
     94 H94       -70.1469   26.5705  -73.1554 H         1 UNK         0.0784 
     95 H95       -71.8115   26.7357  -73.6874 H         1 UNK         0.0784 
     96 H96       -72.2251   25.8960  -76.0243 H         1 UNK         0.3213 
     97 H97       -71.8418   25.7249  -79.5227 H         1 UNK         0.0855 
     98 H98       -72.2301   23.2518  -77.7462 H         1 UNK         0.0814 
     99 H99       -71.0250   23.4118  -79.0163 H         1 UNK         0.0814 
    100 H100      -72.7302   23.4065  -79.4314 H         1 UNK         0.0814 
    101 H101      -74.0328   24.9612  -77.8791 H         1 UNK         0.3105 
    102 H102      -75.1258   28.0919  -76.7661 H         1 UNK         0.0547 
    103 H103      -76.3919   26.5303  -79.0798 H         1 UNK         0.0837 
    104 H104      -75.9285   28.2250  -79.1383 H         1 UNK         0.0837 
    105 H105      -77.2027   27.7102  -78.0484 H         1 UNK         0.0837 
    106 H106      -76.6197   25.8121  -76.6177 H         1 UNK         0.3020 
    107 H107      -75.1529   23.6818  -74.4842 H         1 UNK         0.1245 
    108 H108      -76.4323   26.1016  -73.1323 H         1 UNK         0.0781 
    109 H109      -74.8723   25.4255  -72.7199 H         1 UNK         0.0781 
    110 H110      -75.3816   25.0010  -70.0606 H         1 UNK         0.0836 
    111 H111      -76.9770   24.5153  -69.5400 H         1 UNK         0.0836 
    112 H112      -77.8809   24.6261  -74.5879 H         1 UNK         0.3022 
    113 H113      -78.9834   23.9744  -77.2054 H         1 UNK         0.0747 
    114 H114      -80.0553   21.7272  -77.5240 H         1 UNK         0.0793 
    115 H115      -78.4152   21.7856  -78.1469 H         1 UNK         0.0793 
    116 H116      -78.7377   20.9795  -76.6213 H         1 UNK         0.0793 
    117 H117      -80.3256   24.1783  -75.4937 H         1 UNK         0.3047 
    118 H118      -81.5347   22.0941  -73.0339 H         1 UNK         0.0822 
    119 H119      -81.0772   23.7944  -71.2565 H         1 UNK         0.0807 
    120 H120      -79.7473   24.4492  -72.2125 H         1 UNK         0.0807 
    121 H121      -79.6504   22.8187  -71.5664 H         1 UNK         0.0807 
    122 H122      -81.8276   24.9300  -73.4447 H         1 UNK         0.2946 
    123 H123      -83.6137   24.9069  -76.3950 H         1 UNK         0.1144 
    124 H124      -85.5980   25.8489  -75.2299 H         1 UNK         0.0793 
    125 H125      -85.0552   25.1651  -73.6963 H         1 UNK         0.0793 
    126 H126      -85.5455   24.1083  -75.0132 H         1 UNK         0.0793 
    127 H127      -83.4678   26.9424  -74.4360 H         1 UNK         0.2896 
@<TRIPOS>BOND
     1    1    2 1    
     2    1   67 1    
     3    1   68 1    
     4    1   69 1    
     5    2    3 2    
     6    2    4 am   BACKBONE|DICT|INTERRES
     7    4    5 1    
     8    4   70 1    
     9    5    6 1    
    10    5   65 1    
    11    5   71 1    
    12    6    7 1    
    13    6   72 1    
    14    6   73 1    
    15    7    8 1    
    16    8    9 1    
    17    8   74 1    
    18    8   75 1    
    19    9   10 ar   
    20    9   14 ar   
    21   10   11 ar   
    22   10   76 1    
    23   11   12 ar   
    24   11   48 1    
    25   12   13 ar   
    26   12   77 1    
    27   13   14 ar   
    28   13   15 1    
    29   14   78 1    
    30   15   16 1    
    31   15   79 1    
    32   15   80 1    
    33   16   17 1    
    34   17   18 1    
    35   17   81 1    
    36   17   82 1    
    37   18   19 1    
    38   18   22 1    
    39   18   83 1    
    40   19   20 am   BACKBONE|DICT|INTERRES
    41   19   21 2    
    42   20   84 1    
    43   20   85 1    
    44   22   23 am   BACKBONE|DICT|INTERRES
    45   22   86 1    
    46   23   24 2    
    47   23   25 1    
    48   25   26 1    
    49   25   27 1    
    50   25   87 1    
    51   26   88 1    
    52   26   89 1    
    53   26   90 1    
    54   27   28 am   BACKBONE|DICT|INTERRES
    55   27   91 1    
    56   28   29 2    
    57   28   30 1    
    58   30   31 1    
    59   30   32 1    
    60   30   92 1    
    61   31   93 1    
    62   31   94 1    
    63   31   95 1    
    64   32   33 am   BACKBONE|DICT|INTERRES
    65   32   96 1    
    66   33   34 2    
    67   33   35 1    
    68   35   36 1    
    69   35   37 1    
    70   35   97 1    
    71   36   98 1    
    72   36   99 1    
    73   36  100 1    
    74   37   38 am   BACKBONE|DICT|INTERRES
    75   37  101 1    
    76   38   39 2    
    77   38   40 1    
    78   40   41 1    
    79   40   42 1    
    80   40  102 1    
    81   41  103 1    
    82   41  104 1    
    83   41  105 1    
    84   42   43 am   BACKBONE|DICT|INTERRES
    85   42  106 1    
    86   43   44 2    
    87   43   45 1    
    88   45   46 1    
    89   45   49 1    
    90   45  107 1    
    91   46   47 1    
    92   46  108 1    
    93   46  109 1    
    94   47   48 1    
    95   48  110 1    
    96   48  111 1    
    97   49   50 am   BACKBONE|DICT|INTERRES
    98   49  112 1    
    99   50   51 2    
   100   50   52 1    
   101   52   53 1    
   102   52   54 1    
   103   52  113 1    
   104   53  114 1    
   105   53  115 1    
   106   53  116 1    
   107   54   55 am   BACKBONE|DICT|INTERRES
   108   54  117 1    
   109   55   56 2    
   110   55   57 1    
   111   57   58 1    
   112   57   59 1    
   113   57  118 1    
   114   58  119 1    
   115   58  120 1    
   116   58  121 1    
   117   59   60 am   BACKBONE|DICT|INTERRES
   118   59  122 1    
   119   60   61 2    
   120   60   62 1    
   121   62   63 1    
   122   62   64 1    
   123   62  123 1    
   124   63  124 1    
   125   63  125 1    
   126   63  126 1    
   127   64   65 am   BACKBONE|DICT|INTERRES
   128   64  127 1    
   129   65   66 2    
@<TRIPOS>SUBSTRUCTURE
     1 UNK         1 GROUP             0       ****    0 ROOT    
