@<TRIPOS>MOLECULE
3R135
127   129    1
SMALL
USER_CHARGES


@<TRIPOS>ATOM
      1 CA        -83.8769   26.9143  -72.5018 C.3       0 UNK        -0.1998 
      2 C         -82.4642   27.3787  -72.1544 C.2       0 UNK         0.4909 
      3 O         -81.9792   27.0573  -71.0726 O.2       0 UNK        -0.5240 
      4 N         -81.7694   28.1390  -73.0154 N.am      1 UNK        -0.4739 
      5 CA        -82.2064   28.6123  -74.3366 C.3       1 UNK         0.0864 
      6 C6        -81.3933   29.8546  -74.7987 C.3       11 UNK        -0.0881 
      7 S7        -79.7464   29.5073  -75.5130 S.3       11 UNK        -0.2682 
      8 C8        -78.6158   30.5585  -74.5443 C.3       11 UNK         0.0289 
      9 C9        -78.0962   29.9762  -73.2284 C.ar      11 UNK        -0.0687 
     10 C10       -78.4110   28.6897  -72.7641 C.ar      11 UNK        -0.0823 
     11 C11       -77.9057   28.2286  -71.5426 C.ar      11 UNK        -0.0830 
     12 C12       -77.0508   29.0466  -70.7996 C.ar      11 UNK        -0.1021 
     13 C13       -76.7011   30.3152  -71.2654 C.ar      11 UNK        -0.0753 
     14 C14       -77.2390   30.7768  -72.4680 C.ar      11 UNK        -0.0933 
     15 C15       -75.7386   31.1888  -70.4746 C.3       11 UNK         0.0166 
     16 S16       -74.1131   31.3138  -71.2869 S.3       11 UNK        -0.2615 
     17 C17       -73.4957   29.6025  -71.1384 C.3       11 UNK        -0.0865 
     18 CA        -72.3497   29.2985  -72.1354 C.3       10 UNK         0.0862 
     19 C         -71.7319   27.9096  -71.8462 C.2       10 UNK         0.5551 
     20 N         -70.4975   27.8608  -71.3657 N.am      10 UNK        -0.7319 
     21 O         -72.3778   26.8786  -72.0194 O.2       10 UNK        -0.5018 
     22 N         -72.8148   29.3218  -73.5259 N.am      10 UNK        -0.4509 
     23 C         -72.3588   30.1295  -74.4880 C.2       10 UNK         0.4899 
     24 O         -71.5650   31.0540  -74.3013 O.2       10 UNK        -0.4839 
     25 CA        -72.8554   29.8050  -75.9098 C.3       9 UNK         0.0222 
     26 CB        -72.3134   30.7695  -76.9857 C.3       9 UNK        -0.1966 
     27 N         -72.5792   28.4075  -76.2649 N.am      9 UNK        -0.4218 
     28 C         -71.3851   27.7955  -76.3229 C.2       9 UNK         0.5020 
     29 O         -70.3052   28.3700  -76.1786 O.2       9 UNK        -0.5274 
     30 CA        -71.3813   26.2733  -76.5560 C.3       8 UNK         0.0270 
     31 CB        -71.1091   25.5388  -75.2328 C.3       8 UNK        -0.1976 
     32 N         -72.6260   25.7636  -77.1364 N.am      8 UNK        -0.4313 
     33 C         -72.9899   25.9177  -78.4165 C.2       8 UNK         0.5041 
     34 O         -72.2864   26.4608  -79.2691 O.2       8 UNK        -0.5577 
     35 CA        -74.3874   25.4037  -78.8042 C.3       7 UNK         0.0284 
     36 CB        -74.3726   23.8829  -79.0271 C.3       7 UNK        -0.1958 
     37 N         -75.4153   25.7483  -77.8179 N.am      7 UNK        -0.4454 
     38 C         -75.7957   26.9990  -77.5158 C.2       7 UNK         0.5089 
     39 O         -75.3325   28.0095  -78.0432 O.2       7 UNK        -0.5125 
     40 CA        -76.8550   27.1428  -76.4157 C.3       6 UNK         0.0408 
     41 CB        -78.2479   26.8228  -76.9774 C.3       6 UNK        -0.1791 
     42 N         -76.5608   26.2753  -75.2749 N.am      6 UNK        -0.4762 
     43 C         -75.5517   26.4765  -74.4123 C.2       6 UNK         0.5007 
     44 O         -74.8138   27.4615  -74.4433 O.2       6 UNK        -0.5032 
     45 CA        -75.2733   25.3632  -73.3808 C.3       5 UNK         0.0783 
     46 C46       -75.9425   25.6360  -72.0127 C.3       11 UNK        -0.0857 
     47 S47       -77.7611   25.4789  -72.0522 S.3       11 UNK        -0.2512 
     48 C48       -78.2991   26.8605  -70.9985 C.3       11 UNK         0.0225 
     49 N         -75.5866   24.0270  -73.8992 N.am      5 UNK        -0.4615 
     50 C         -74.8993   23.4272  -74.8786 C.2       4 UNK         0.5053 
     51 O         -73.9281   23.9344  -75.4366 O.2       4 UNK        -0.5105 
     52 CA        -75.3862   22.0458  -75.3395 C.3       4 UNK         0.0263 
     53 CB        -74.7767   20.9426  -74.4603 C.3       4 UNK        -0.1981 
     54 N         -76.8437   21.8949  -75.3749 N.am      4 UNK        -0.4224 
     55 C         -77.6874   22.6310  -76.1128 C.2       3 UNK         0.4895 
     56 O         -77.3302   23.5972  -76.7906 O.2       3 UNK        -0.5091 
     57 CA        -79.1582   22.1632  -76.1514 C.3       3 UNK         0.0250 
     58 CB        -79.5832   21.3311  -74.9174 C.3       3 UNK        -0.1996 
     59 N         -80.1191   23.2460  -76.4007 N.am      3 UNK        -0.4254 
     60 C         -80.4031   24.2766  -75.5925 C.2       2 UNK         0.5004 
     61 O         -79.8260   24.5042  -74.5276 O.2       2 UNK        -0.5226 
     62 CA        -81.5622   25.1836  -76.0340 C.3       2 UNK         0.0269 
     63 CB        -82.9056   24.4259  -75.9733 C.3       2 UNK        -0.1926 
     64 N         -81.6135   26.3569  -75.1628 N.am      2 UNK        -0.4687 
     65 C         -82.2735   27.4967  -75.4096 C.2       1 UNK         0.5165 
     66 O         -82.9370   27.6875  -76.4297 O.2       1 UNK        -0.5079 
     67 H67       -83.8662   26.2085  -73.3311 H         1 UNK         0.0900 
     68 H68       -84.3281   26.4082  -71.6485 H         1 UNK         0.0900 
     69 H69       -84.5212   27.7545  -72.7572 H         1 UNK         0.0900 
     70 H70       -80.8497   28.4485  -72.7377 H         1 UNK         0.2959 
     71 H71       -83.2335   28.9629  -74.2203 H         1 UNK         0.1079 
     72 H72       -81.2950   30.5628  -73.9743 H         1 UNK         0.0837 
     73 H73       -81.9607   30.3865  -75.5646 H         1 UNK         0.0837 
     74 H74       -79.0973   31.5188  -74.3540 H         1 UNK         0.0685 
     75 H75       -77.7530   30.7715  -75.1770 H         1 UNK         0.0685 
     76 H76       -79.0372   28.0307  -73.3465 H         1 UNK         0.1434 
     77 H77       -76.6488   28.6929  -69.8599 H         1 UNK         0.1329 
     78 H78       -76.9699   31.7626  -72.8229 H         1 UNK         0.1335 
     79 H79       -76.1610   32.1895  -70.3738 H         1 UNK         0.0680 
     80 H80       -75.6067   30.8079  -69.4605 H         1 UNK         0.0680 
     81 H81       -74.3147   28.8991  -71.2937 H         1 UNK         0.1032 
     82 H82       -73.1593   29.4595  -70.1096 H         1 UNK         0.1032 
     83 H83       -71.5719   30.0511  -71.9902 H         1 UNK         0.0461 
     84 H84       -69.9632   28.7018  -71.2120 H         1 UNK         0.3453 
     85 H85       -70.0891   26.9629  -71.1587 H         1 UNK         0.3453 
     86 H86       -73.4608   28.5778  -73.7834 H         1 UNK         0.2984 
     87 H87       -73.9417   29.9072  -75.8920 H         1 UNK         0.0554 
     88 H88       -72.6029   31.7978  -76.7662 H         1 UNK         0.0847 
     89 H89       -72.7094   30.5238  -77.9711 H         1 UNK         0.0847 
     90 H90       -71.2250   30.7452  -77.0457 H         1 UNK         0.0847 
     91 H91       -73.4012   27.8283  -76.3737 H         1 UNK         0.3141 
     92 H92       -70.5641   26.0491  -77.2449 H         1 UNK         0.0743 
     93 H93       -70.1739   25.8733  -74.7818 H         1 UNK         0.0784 
     94 H94       -71.9026   25.7162  -74.5057 H         1 UNK         0.0784 
     95 H95       -71.0301   24.4622  -75.3848 H         1 UNK         0.0784 
     96 H96       -73.2295   25.2228  -76.5170 H         1 UNK         0.3213 
     97 H97       -74.6648   25.8816  -79.7462 H         1 UNK         0.0855 
     98 H98       -74.0884   23.3433  -78.1238 H         1 UNK         0.0814 
     99 H99       -73.6582   23.6117  -79.8056 H         1 UNK         0.0814 
    100 H100      -75.3503   23.5175  -79.3418 H         1 UNK         0.0814 
    101 H101      -75.8874   24.9800  -77.3509 H         1 UNK         0.3105 
    102 H102      -76.8559   28.1769  -76.0639 H         1 UNK         0.0547 
    103 H103      -78.2867   25.8556  -77.4767 H         1 UNK         0.0837 
    104 H104      -78.5497   27.5734  -77.7087 H         1 UNK         0.0837 
    105 H105      -78.9955   26.8190  -76.1872 H         1 UNK         0.0837 
    106 H106      -77.1058   25.4266  -75.1928 H         1 UNK         0.3020 
    107 H107      -74.1943   25.3855  -73.2112 H         1 UNK         0.1245 
    108 H108      -75.6534   26.6223  -71.6467 H         1 UNK         0.0781 
    109 H109      -75.5627   24.9294  -71.2734 H         1 UNK         0.0781 
    110 H110      -77.9000   26.7090  -69.9944 H         1 UNK         0.0836 
    111 H111      -79.3831   26.8190  -70.8993 H         1 UNK         0.0836 
    112 H112      -76.3953   23.5684  -73.5048 H         1 UNK         0.3022 
    113 H113      -75.0246   21.9009  -76.3593 H         1 UNK         0.0747 
    114 H114      -75.0172   19.9505  -74.8429 H         1 UNK         0.0793 
    115 H115      -73.6887   21.0214  -74.4340 H         1 UNK         0.0793 
    116 H116      -75.1324   21.0021  -73.4308 H         1 UNK         0.0793 
    117 H117      -77.2271   21.1222  -74.8503 H         1 UNK         0.3047 
    118 H118      -79.2283   21.5081  -77.0210 H         1 UNK         0.0822 
    119 H119      -80.6410   21.0716  -74.9652 H         1 UNK         0.0807 
    120 H120      -79.4202   21.8730  -73.9846 H         1 UNK         0.0807 
    121 H121      -79.0353   20.3902  -74.8570 H         1 UNK         0.0807 
    122 H122      -80.6241   23.1744  -77.2729 H         1 UNK         0.2946 
    123 H123      -81.3669   25.5131  -77.0571 H         1 UNK         0.1144 
    124 H124      -83.7358   25.0503  -76.3032 H         1 UNK         0.0793 
    125 H125      -83.1265   24.0855  -74.9608 H         1 UNK         0.0793 
    126 H126      -82.8974   23.5464  -76.6180 H         1 UNK         0.0793 
    127 H127      -81.0479   26.2736  -74.3259 H         1 UNK         0.2896 
@<TRIPOS>BOND
     1    1    2 1    
     2    1   67 1    
     3    1   68 1    
     4    1   69 1    
     5    2    3 2    
     6    2    4 am   BACKBONE|DICT|INTERRES
     7    4    5 1    
     8    4   70 1    
     9    5    6 1    
    10    5   65 1    
    11    5   71 1    
    12    6    7 1    
    13    6   72 1    
    14    6   73 1    
    15    7    8 1    
    16    8    9 1    
    17    8   74 1    
    18    8   75 1    
    19    9   10 ar   
    20    9   14 ar   
    21   10   11 ar   
    22   10   76 1    
    23   11   12 ar   
    24   11   48 1    
    25   12   13 ar   
    26   12   77 1    
    27   13   14 ar   
    28   13   15 1    
    29   14   78 1    
    30   15   16 1    
    31   15   79 1    
    32   15   80 1    
    33   16   17 1    
    34   17   18 1    
    35   17   81 1    
    36   17   82 1    
    37   18   19 1    
    38   18   22 1    
    39   18   83 1    
    40   19   20 am   BACKBONE|DICT|INTERRES
    41   19   21 2    
    42   20   84 1    
    43   20   85 1    
    44   22   23 am   BACKBONE|DICT|INTERRES
    45   22   86 1    
    46   23   24 2    
    47   23   25 1    
    48   25   26 1    
    49   25   27 1    
    50   25   87 1    
    51   26   88 1    
    52   26   89 1    
    53   26   90 1    
    54   27   28 am   BACKBONE|DICT|INTERRES
    55   27   91 1    
    56   28   29 2    
    57   28   30 1    
    58   30   31 1    
    59   30   32 1    
    60   30   92 1    
    61   31   93 1    
    62   31   94 1    
    63   31   95 1    
    64   32   33 am   BACKBONE|DICT|INTERRES
    65   32   96 1    
    66   33   34 2    
    67   33   35 1    
    68   35   36 1    
    69   35   37 1    
    70   35   97 1    
    71   36   98 1    
    72   36   99 1    
    73   36  100 1    
    74   37   38 am   BACKBONE|DICT|INTERRES
    75   37  101 1    
    76   38   39 2    
    77   38   40 1    
    78   40   41 1    
    79   40   42 1    
    80   40  102 1    
    81   41  103 1    
    82   41  104 1    
    83   41  105 1    
    84   42   43 am   BACKBONE|DICT|INTERRES
    85   42  106 1    
    86   43   44 2    
    87   43   45 1    
    88   45   46 1    
    89   45   49 1    
    90   45  107 1    
    91   46   47 1    
    92   46  108 1    
    93   46  109 1    
    94   47   48 1    
    95   48  110 1    
    96   48  111 1    
    97   49   50 am   BACKBONE|DICT|INTERRES
    98   49  112 1    
    99   50   51 2    
   100   50   52 1    
   101   52   53 1    
   102   52   54 1    
   103   52  113 1    
   104   53  114 1    
   105   53  115 1    
   106   53  116 1    
   107   54   55 am   BACKBONE|DICT|INTERRES
   108   54  117 1    
   109   55   56 2    
   110   55   57 1    
   111   57   58 1    
   112   57   59 1    
   113   57  118 1    
   114   58  119 1    
   115   58  120 1    
   116   58  121 1    
   117   59   60 am   BACKBONE|DICT|INTERRES
   118   59  122 1    
   119   60   61 2    
   120   60   62 1    
   121   62   63 1    
   122   62   64 1    
   123   62  123 1    
   124   63  124 1    
   125   63  125 1    
   126   63  126 1    
   127   64   65 am   BACKBONE|DICT|INTERRES
   128   64  127 1    
   129   65   66 2    
@<TRIPOS>SUBSTRUCTURE
     1 UNK         1 GROUP             0       ****    0 ROOT    
