@<TRIPOS>MOLECULE
3R135
127   129    1
SMALL
USER_CHARGES


@<TRIPOS>ATOM
      1 CA        -82.7050   23.5375  -71.9482 C.3       0 UNK        -0.1998 
      2 C         -81.9030   24.5844  -72.7045 C.2       0 UNK         0.4909 
      3 O         -80.8733   24.2510  -73.2913 O.2       0 UNK        -0.5240 
      4 N         -82.3798   25.8384  -72.7107 N.am      1 UNK        -0.4739 
      5 CA        -81.7528   27.0235  -73.3205 C.3       1 UNK         0.0864 
      6 C6        -80.5384   27.5486  -72.5183 C.3       11 UNK        -0.0881 
      7 S7        -80.9383   28.0750  -70.8182 S.3       11 UNK        -0.2682 
      8 C8        -79.3827   27.6969  -69.9270 C.3       11 UNK         0.0289 
      9 C9        -78.1007   28.1564  -70.6274 C.ar      11 UNK        -0.0687 
     10 C10       -78.0595   29.3143  -71.4109 C.ar      11 UNK        -0.0823 
     11 C11       -76.9063   29.6578  -72.1204 C.ar      11 UNK        -0.0830 
     12 C12       -75.7624   28.8638  -71.9962 C.ar      11 UNK        -0.1021 
     13 C13       -75.7591   27.7378  -71.1611 C.ar      11 UNK        -0.0753 
     14 C14       -76.9376   27.3932  -70.4910 C.ar      11 UNK        -0.0933 
     15 C15       -74.5345   26.8429  -70.9506 C.3       11 UNK         0.0166 
     16 S16       -73.0546   27.2290  -71.9444 S.3       11 UNK        -0.2615 
     17 C17       -72.2617   28.5850  -71.0066 C.3       11 UNK        -0.0865 
     18 CA        -72.1913   29.9289  -71.7836 C.3       10 UNK         0.0862 
     19 C         -71.4160   31.0055  -70.9691 C.2       10 UNK         0.5551 
     20 N         -70.3274   31.5701  -71.4774 N.am      10 UNK        -0.7319 
     21 O         -71.8140   31.3364  -69.8550 O.2       10 UNK        -0.5018 
     22 N         -71.7212   29.7376  -73.1668 N.am      10 UNK        -0.4509 
     23 C         -71.9836   30.5591  -74.1901 C.2       10 UNK         0.4899 
     24 O         -72.6079   31.6143  -74.0780 O.2       10 UNK        -0.4839 
     25 CA        -71.4538   30.1484  -75.5779 C.3       9 UNK         0.0222 
     26 CB        -70.1879   30.9504  -75.9234 C.3       9 UNK        -0.1966 
     27 N         -71.1692   28.7145  -75.7254 N.am      9 UNK        -0.4218 
     28 C         -72.0998   27.7507  -75.7700 C.2       9 UNK         0.5020 
     29 O         -73.3059   27.9554  -75.6429 O.2       9 UNK        -0.5274 
     30 CA        -71.5906   26.3227  -75.9994 C.3       8 UNK         0.0270 
     31 CB        -70.9506   25.7328  -74.7290 C.3       8 UNK        -0.1976 
     32 N         -72.6945   25.4688  -76.4363 N.am      8 UNK        -0.4313 
     33 C         -72.5625   24.3905  -77.2176 C.2       8 UNK         0.5041 
     34 O         -71.4786   23.9829  -77.6399 O.2       8 UNK        -0.5577 
     35 CA        -73.8414   23.6263  -77.6018 C.3       7 UNK         0.0284 
     36 CB        -74.1896   22.5856  -76.5251 C.3       7 UNK        -0.1958 
     37 N         -75.0015   24.4873  -77.8387 N.am      7 UNK        -0.4454 
     38 C         -75.1258   25.3554  -78.8538 C.2       7 UNK         0.5089 
     39 O         -74.2644   25.5328  -79.7156 O.2       7 UNK        -0.5125 
     40 CA        -76.4306   26.1670  -78.9165 C.3       6 UNK         0.0408 
     41 CB        -77.5446   25.3709  -79.6137 C.3       6 UNK        -0.1791 
     42 N         -76.8606   26.5653  -77.5750 N.am      6 UNK        -0.4762 
     43 C         -76.4209   27.6678  -76.9486 C.2       6 UNK         0.5007 
     44 O         -75.7783   28.5478  -77.5226 O.2       6 UNK        -0.5032 
     45 CA        -76.7411   27.8183  -75.4424 C.3       5 UNK         0.0783 
     46 C46       -77.6183   29.0651  -75.1464 C.3       11 UNK        -0.0857 
     47 S47       -76.5775   30.5247  -74.7809 S.3       11 UNK        -0.2512 
     48 C48       -76.9151   30.8876  -73.0224 C.3       11 UNK         0.0225 
     49 N         -77.2922   26.5879  -74.8584 N.am      5 UNK        -0.4615 
     50 C         -76.5278   25.5496  -74.4851 C.2       4 UNK         0.5053 
     51 O         -75.3042   25.5213  -74.6123 O.2       4 UNK        -0.5105 
     52 CA        -77.2388   24.3002  -73.9436 C.3       4 UNK         0.0263 
     53 CB        -77.5458   24.4248  -72.4446 C.3       4 UNK        -0.1981 
     54 N         -78.4587   23.9572  -74.6752 N.am      4 UNK        -0.4224 
     55 C         -78.4706   23.5269  -75.9439 C.2       3 UNK         0.4895 
     56 O         -77.4744   23.5158  -76.6662 O.2       3 UNK        -0.5091 
     57 CA        -79.8095   23.0282  -76.4985 C.3       3 UNK         0.0250 
     58 CB        -80.2658   21.7479  -75.7775 C.3       3 UNK        -0.1996 
     59 N         -80.8342   24.0596  -76.3655 N.am      3 UNK        -0.4254 
     60 C         -81.1917   24.9022  -77.3440 C.2       2 UNK         0.5004 
     61 O         -80.7426   24.8520  -78.4890 O.2       2 UNK        -0.5226 
     62 CA        -82.2330   25.9860  -77.0054 C.3       2 UNK         0.0269 
     63 CB        -83.6118   25.5977  -77.5643 C.3       2 UNK        -0.1926 
     64 N         -82.3647   26.2783  -75.5743 N.am      2 UNK        -0.4687 
     65 C         -81.4018   26.8144  -74.8117 C.2       1 UNK         0.5165 
     66 O         -80.2762   27.0908  -75.2348 O.2       1 UNK        -0.5079 
     67 H67       -82.0923   23.0949  -71.1634 H         1 UNK         0.0900 
     68 H68       -83.5964   23.9607  -71.4857 H         1 UNK         0.0900 
     69 H69       -83.0167   22.7434  -72.6261 H         1 UNK         0.0900 
     70 H70       -83.2390   26.0280  -72.2133 H         1 UNK         0.2959 
     71 H71       -82.5102   27.8092  -73.3116 H         1 UNK         0.1079 
     72 H72       -79.7520   26.7966  -72.4940 H         1 UNK         0.0837 
     73 H73       -80.1180   28.4205  -73.0191 H         1 UNK         0.0837 
     74 H74       -79.4255   28.1544  -68.9380 H         1 UNK         0.0685 
     75 H75       -79.3490   26.6178  -69.7678 H         1 UNK         0.0685 
     76 H76       -78.9427   29.9309  -71.5017 H         1 UNK         0.1434 
     77 H77       -74.8879   29.1268  -72.5710 H         1 UNK         0.1329 
     78 H78       -76.9525   26.5098  -69.8670 H         1 UNK         0.1335 
     79 H79       -74.8151   25.8176  -71.1908 H         1 UNK         0.0680 
     80 H80       -74.2654   26.8423  -69.8935 H         1 UNK         0.0680 
     81 H81       -72.7887   28.7278  -70.0614 H         1 UNK         0.1032 
     82 H82       -71.2569   28.2520  -70.7401 H         1 UNK         0.1032 
     83 H83       -73.2076   30.3180  -71.8453 H         1 UNK         0.0461 
     84 H84       -69.8348   32.2681  -70.9427 H         1 UNK         0.3453 
     85 H85       -70.0000   31.3080  -72.3929 H         1 UNK         0.3453 
     86 H86       -71.2153   28.8844  -73.3487 H         1 UNK         0.2984 
     87 H87       -72.2270   30.4087  -76.3041 H         1 UNK         0.0554 
     88 H88       -70.3730   32.0233  -75.8513 H         1 UNK         0.0847 
     89 H89       -69.8565   30.7512  -76.9427 H         1 UNK         0.0847 
     90 H90       -69.3631   30.7170  -75.2490 H         1 UNK         0.0847 
     91 H91       -70.1988   28.4560  -75.8360 H         1 UNK         0.3141 
     92 H92       -70.8397   26.3705  -76.7911 H         1 UNK         0.0743 
     93 H93       -70.1763   26.3870  -74.3270 H         1 UNK         0.0784 
     94 H94       -71.6919   25.5778  -73.9451 H         1 UNK         0.0784 
     95 H95       -70.4832   24.7698  -74.9350 H         1 UNK         0.0784 
     96 H96       -73.6141   25.7609  -76.1162 H         1 UNK         0.3213 
     97 H97       -73.6350   23.0927  -78.5321 H         1 UNK         0.0855 
     98 H98       -74.4296   23.0573  -75.5716 H         1 UNK         0.0814 
     99 H99       -73.3529   21.9074  -76.3523 H         1 UNK         0.0814 
    100 H100      -75.0443   21.9772  -76.8219 H         1 UNK         0.0814 
    101 H101      -75.7984   24.3455  -77.2252 H         1 UNK         0.3105 
    102 H102      -76.2420   27.0578  -79.5195 H         1 UNK         0.0547 
    103 H103      -78.4576   25.9603  -79.6977 H         1 UNK         0.0837 
    104 H104      -77.2466   25.0912  -80.6249 H         1 UNK         0.0837 
    105 H105      -77.7905   24.4513  -79.0835 H         1 UNK         0.0837 
    106 H106      -77.3853   25.8857  -77.0413 H         1 UNK         0.3020 
    107 H107      -75.7756   27.9765  -74.9558 H         1 UNK         0.1245 
    108 H108      -78.2723   28.8813  -74.2963 H         1 UNK         0.0781 
    109 H109      -78.2894   29.2970  -75.9757 H         1 UNK         0.0781 
    110 H110      -77.8738   31.4047  -72.9596 H         1 UNK         0.0836 
    111 H111      -76.1661   31.5943  -72.6627 H         1 UNK         0.0836 
    112 H112      -78.3025   26.5353  -74.7840 H         1 UNK         0.3022 
    113 H113      -76.5492   23.4616  -74.0637 H         1 UNK         0.0747 
    114 H114      -76.6290   24.5575  -71.8718 H         1 UNK         0.0793 
    115 H115      -78.1900   25.2743  -72.2302 H         1 UNK         0.0793 
    116 H116      -78.0369   23.5294  -72.0634 H         1 UNK         0.0793 
    117 H117      -79.3332   23.9881  -74.1506 H         1 UNK         0.3047 
    118 H118      -79.6599   22.7785  -77.5514 H         1 UNK         0.0822 
    119 H119      -79.5056   20.9689  -75.8489 H         1 UNK         0.0807 
    120 H120      -81.1781   21.3507  -76.2227 H         1 UNK         0.0807 
    121 H121      -80.4606   21.9180  -74.7180 H         1 UNK         0.0807 
    122 H122      -81.2116   24.2062  -75.4373 H         1 UNK         0.2946 
    123 H123      -81.9055   26.9022  -77.5025 H         1 UNK         0.1144 
    124 H124      -84.3393   26.3965  -77.4194 H         1 UNK         0.0793 
    125 H125      -84.0005   24.6963  -77.0888 H         1 UNK         0.0793 
    126 H126      -83.5582   25.4029  -78.6366 H         1 UNK         0.0793 
    127 H127      -83.2485   26.0502  -75.1414 H         1 UNK         0.2896 
@<TRIPOS>BOND
     1    1    2 1    
     2    1   67 1    
     3    1   68 1    
     4    1   69 1    
     5    2    3 2    
     6    2    4 am   BACKBONE|DICT|INTERRES
     7    4    5 1    
     8    4   70 1    
     9    5    6 1    
    10    5   65 1    
    11    5   71 1    
    12    6    7 1    
    13    6   72 1    
    14    6   73 1    
    15    7    8 1    
    16    8    9 1    
    17    8   74 1    
    18    8   75 1    
    19    9   10 ar   
    20    9   14 ar   
    21   10   11 ar   
    22   10   76 1    
    23   11   12 ar   
    24   11   48 1    
    25   12   13 ar   
    26   12   77 1    
    27   13   14 ar   
    28   13   15 1    
    29   14   78 1    
    30   15   16 1    
    31   15   79 1    
    32   15   80 1    
    33   16   17 1    
    34   17   18 1    
    35   17   81 1    
    36   17   82 1    
    37   18   19 1    
    38   18   22 1    
    39   18   83 1    
    40   19   20 am   BACKBONE|DICT|INTERRES
    41   19   21 2    
    42   20   84 1    
    43   20   85 1    
    44   22   23 am   BACKBONE|DICT|INTERRES
    45   22   86 1    
    46   23   24 2    
    47   23   25 1    
    48   25   26 1    
    49   25   27 1    
    50   25   87 1    
    51   26   88 1    
    52   26   89 1    
    53   26   90 1    
    54   27   28 am   BACKBONE|DICT|INTERRES
    55   27   91 1    
    56   28   29 2    
    57   28   30 1    
    58   30   31 1    
    59   30   32 1    
    60   30   92 1    
    61   31   93 1    
    62   31   94 1    
    63   31   95 1    
    64   32   33 am   BACKBONE|DICT|INTERRES
    65   32   96 1    
    66   33   34 2    
    67   33   35 1    
    68   35   36 1    
    69   35   37 1    
    70   35   97 1    
    71   36   98 1    
    72   36   99 1    
    73   36  100 1    
    74   37   38 am   BACKBONE|DICT|INTERRES
    75   37  101 1    
    76   38   39 2    
    77   38   40 1    
    78   40   41 1    
    79   40   42 1    
    80   40  102 1    
    81   41  103 1    
    82   41  104 1    
    83   41  105 1    
    84   42   43 am   BACKBONE|DICT|INTERRES
    85   42  106 1    
    86   43   44 2    
    87   43   45 1    
    88   45   46 1    
    89   45   49 1    
    90   45  107 1    
    91   46   47 1    
    92   46  108 1    
    93   46  109 1    
    94   47   48 1    
    95   48  110 1    
    96   48  111 1    
    97   49   50 am   BACKBONE|DICT|INTERRES
    98   49  112 1    
    99   50   51 2    
   100   50   52 1    
   101   52   53 1    
   102   52   54 1    
   103   52  113 1    
   104   53  114 1    
   105   53  115 1    
   106   53  116 1    
   107   54   55 am   BACKBONE|DICT|INTERRES
   108   54  117 1    
   109   55   56 2    
   110   55   57 1    
   111   57   58 1    
   112   57   59 1    
   113   57  118 1    
   114   58  119 1    
   115   58  120 1    
   116   58  121 1    
   117   59   60 am   BACKBONE|DICT|INTERRES
   118   59  122 1    
   119   60   61 2    
   120   60   62 1    
   121   62   63 1    
   122   62   64 1    
   123   62  123 1    
   124   63  124 1    
   125   63  125 1    
   126   63  126 1    
   127   64   65 am   BACKBONE|DICT|INTERRES
   128   64  127 1    
   129   65   66 2    
@<TRIPOS>SUBSTRUCTURE
     1 UNK         1 GROUP             0       ****    0 ROOT    
