@<TRIPOS>MOLECULE
3R135
127   129    1
SMALL
USER_CHARGES


@<TRIPOS>ATOM
      1 CA        -83.2738   22.4611  -73.7083 C.3       0 UNK        -0.1998 
      2 C         -82.6095   23.8280  -73.6592 C.2       0 UNK         0.4909 
      3 O         -81.4579   23.9608  -74.0731 O.2       0 UNK        -0.5240 
      4 N         -83.3268   24.8451  -73.1635 N.am      1 UNK        -0.4739 
      5 CA        -82.8785   26.2352  -73.0114 C.3       1 UNK         0.0864 
      6 C6        -81.8321   26.3990  -71.8649 C.3       11 UNK        -0.0881 
      7 S7        -82.0979   27.9228  -70.8955 S.3       11 UNK        -0.2682 
      8 C8        -80.9874   29.1342  -71.6959 C.3       11 UNK         0.0289 
      9 C9        -79.4920   29.0089  -71.3908 C.ar      11 UNK        -0.0687 
     10 C10       -78.9405   27.9632  -70.6349 C.ar      11 UNK        -0.0823 
     11 C11       -77.5661   27.9156  -70.3849 C.ar      11 UNK        -0.0830 
     12 C12       -76.7446   28.9441  -70.8523 C.ar      11 UNK        -0.1021 
     13 C13       -77.2650   29.9636  -71.6500 C.ar      11 UNK        -0.0753 
     14 C14       -78.6390   29.9919  -71.9074 C.ar      11 UNK        -0.0933 
     15 C15       -76.3418   31.0157  -72.2533 C.3       11 UNK         0.0166 
     16 S16       -75.3258   30.3282  -73.6075 S.3       11 UNK        -0.2615 
     17 C17       -73.8617   29.6921  -72.7143 C.3       11 UNK        -0.0865 
     18 CA        -72.5264   30.2354  -73.2850 C.3       10 UNK         0.0862 
     19 C         -71.3351   29.9444  -72.3215 C.2       10 UNK         0.5551 
     20 N         -70.2587   29.2920  -72.7458 N.am      10 UNK        -0.7319 
     21 O         -71.3856   30.3314  -71.1567 O.2       10 UNK        -0.5018 
     22 N         -72.3062   29.7784  -74.6664 N.am      10 UNK        -0.4509 
     23 C         -71.5630   30.4305  -75.5696 C.2       10 UNK         0.4899 
     24 O         -71.0632   31.5391  -75.3698 O.2       10 UNK        -0.4839 
     25 CA        -71.3311   29.7146  -76.9160 C.3       9 UNK         0.0222 
     26 CB        -70.1442   30.3020  -77.7091 C.3       9 UNK        -0.1966 
     27 N         -71.1944   28.2566  -76.7903 N.am      9 UNK        -0.4218 
     28 C         -70.2906   27.5821  -76.0581 C.2       9 UNK         0.5020 
     29 O         -69.4371   28.1352  -75.3630 O.2       9 UNK        -0.5274 
     30 CA        -70.3573   26.0413  -76.0678 C.3       8 UNK         0.0270 
     31 CB        -70.1909   25.4664  -74.6485 C.3       8 UNK        -0.1976 
     32 N         -71.6206   25.5554  -76.6253 N.am      8 UNK        -0.4313 
     33 C         -71.7922   25.0781  -77.8666 C.2       8 UNK         0.5041 
     34 O         -70.8720   24.9052  -78.6663 O.2       8 UNK        -0.5577 
     35 CA        -73.2372   24.7677  -78.3102 C.3       7 UNK         0.0284 
     36 CB        -73.5354   23.2673  -78.1585 C.3       7 UNK        -0.1958 
     37 N         -74.2546   25.5333  -77.5828 N.am      7 UNK        -0.4454 
     38 C         -74.3649   26.8694  -77.5820 C.2       7 UNK         0.5089 
     39 O         -73.6714   27.6099  -78.2781 O.2       7 UNK        -0.5125 
     40 CA        -75.3520   27.4891  -76.5780 C.3       6 UNK         0.0408 
     41 CB        -76.6823   27.8222  -77.2670 C.3       6 UNK        -0.1791 
     42 N         -75.6119   26.6479  -75.4050 N.am      6 UNK        -0.4762 
     43 C         -74.7089   26.2319  -74.5064 C.2       6 UNK         0.5007 
     44 O         -73.5109   26.5098  -74.5787 O.2       6 UNK        -0.5032 
     45 CA        -75.2224   25.3375  -73.3559 C.3       5 UNK         0.0783 
     46 C46       -75.8376   26.2260  -72.2458 C.3       11 UNK        -0.0857 
     47 S47       -76.5977   25.3426  -70.8375 S.3       11 UNK        -0.2512 
     48 C48       -76.9423   26.7180  -69.6787 C.3       11 UNK         0.0225 
     49 N         -76.0948   24.2453  -73.8222 N.am      5 UNK        -0.4615 
     50 C         -77.3438   24.3356  -74.2966 C.2       4 UNK         0.5053 
     51 O         -77.9494   25.4023  -74.4427 O.2       4 UNK        -0.5105 
     52 CA        -78.0188   23.0051  -74.6683 C.3       4 UNK         0.0263 
     53 CB        -78.4922   22.2709  -73.4027 C.3       4 UNK        -0.1981 
     54 N         -79.1754   23.2611  -75.5194 N.am      4 UNK        -0.4224 
     55 C         -79.1248   23.5005  -76.8367 C.2       3 UNK         0.4895 
     56 O         -78.1321   23.3030  -77.5383 O.2       3 UNK        -0.5091 
     57 CA        -80.3778   24.1412  -77.4492 C.3       3 UNK         0.0250 
     58 CB        -81.5483   23.1456  -77.5119 C.3       3 UNK        -0.1996 
     59 N         -80.7440   25.3011  -76.6345 N.am      3 UNK        -0.4254 
     60 C         -80.3945   26.5641  -76.9130 C.2       2 UNK         0.5004 
     61 O         -79.9440   26.9176  -78.0036 O.2       2 UNK        -0.5226 
     62 CA        -80.5070   27.6058  -75.7809 C.3       2 UNK         0.0269 
     63 CB        -81.1025   28.9465  -76.2605 C.3       2 UNK        -0.1926 
     64 N         -81.1696   27.1159  -74.5654 N.am      2 UNK        -0.4687 
     65 C         -82.4677   26.8321  -74.3795 C.2       1 UNK         0.5165 
     66 O         -83.3333   26.9828  -75.2431 O.2       1 UNK        -0.5079 
     67 H67       -84.2270   22.4528  -73.1801 H         1 UNK         0.0900 
     68 H68       -83.4543   22.1670  -74.7415 H         1 UNK         0.0900 
     69 H69       -82.6265   21.7146  -73.2490 H         1 UNK         0.0900 
     70 H70       -84.2811   24.6731  -72.8780 H         1 UNK         0.2959 
     71 H71       -83.7800   26.7790  -72.7234 H         1 UNK         0.1079 
     72 H72       -80.7961   26.3070  -72.1918 H         1 UNK         0.0837 
     73 H73       -81.9555   25.5845  -71.1491 H         1 UNK         0.0837 
     74 H74       -81.3109   30.1235  -71.3692 H         1 UNK         0.0685 
     75 H75       -81.1419   29.1148  -72.7738 H         1 UNK         0.0685 
     76 H76       -79.5627   27.1675  -70.2529 H         1 UNK         0.1434 
     77 H77       -75.6846   28.9090  -70.6501 H         1 UNK         0.1329 
     78 H78       -79.0496   30.7859  -72.5166 H         1 UNK         0.1335 
     79 H79       -76.9296   31.8419  -72.6560 H         1 UNK         0.0680 
     80 H80       -75.7080   31.4502  -71.4791 H         1 UNK         0.0680 
     81 H81       -73.9500   29.9573  -71.6603 H         1 UNK         0.1032 
     82 H82       -73.8683   28.6038  -72.7531 H         1 UNK         0.1032 
     83 H83       -72.6124   31.3236  -73.3053 H         1 UNK         0.0461 
     84 H84       -69.5049   29.1251  -72.0989 H         1 UNK         0.3453 
     85 H85       -70.1662   28.9853  -73.7080 H         1 UNK         0.3453 
     86 H86       -72.6629   28.8607  -74.8932 H         1 UNK         0.2984 
     87 H87       -72.2340   29.8846  -77.5039 H         1 UNK         0.0554 
     88 H88       -70.2997   31.3603  -77.9225 H         1 UNK         0.0847 
     89 H89       -70.0177   29.7965  -78.6664 H         1 UNK         0.0847 
     90 H90       -69.2074   30.2160  -77.1575 H         1 UNK         0.0847 
     91 H91       -71.8733   27.7246  -77.3248 H         1 UNK         0.3141 
     92 H92       -69.5192   25.6910  -76.6735 H         1 UNK         0.0743 
     93 H93       -69.2193   25.7304  -74.2287 H         1 UNK         0.0784 
     94 H94       -70.9531   25.8450  -73.9665 H         1 UNK         0.0784 
     95 H95       -70.2538   24.3781  -74.6516 H         1 UNK         0.0784 
     96 H96       -72.4340   25.6953  -76.0327 H         1 UNK         0.3213 
     97 H97       -73.3172   25.0311  -79.3671 H         1 UNK         0.0855 
     98 H98       -73.4844   22.9477  -77.1168 H         1 UNK         0.0814 
     99 H99       -72.8152   22.6685  -78.7182 H         1 UNK         0.0814 
    100 H100      -74.5262   23.0178  -78.5394 H         1 UNK         0.0814 
    101 H101      -74.8790   25.0113  -76.9854 H         1 UNK         0.3105 
    102 H102      -74.9094   28.4210  -76.2206 H         1 UNK         0.0547 
    103 H103      -76.5236   28.4497  -78.1451 H         1 UNK         0.0837 
    104 H104      -77.2002   26.9213  -77.5986 H         1 UNK         0.0837 
    105 H105      -77.3476   28.3685  -76.5989 H         1 UNK         0.0837 
    106 H106      -76.5763   26.3657  -75.2405 H         1 UNK         0.3020 
    107 H107      -74.3432   24.8498  -72.9309 H         1 UNK         0.1245 
    108 H108      -76.6009   26.8760  -72.6780 H         1 UNK         0.0781 
    109 H109      -75.0660   26.8790  -71.8381 H         1 UNK         0.0781 
    110 H110      -77.6049   26.3627  -68.8882 H         1 UNK         0.0836 
    111 H111      -76.0130   27.0107  -69.1876 H         1 UNK         0.0836 
    112 H112      -75.6876   23.3236  -73.7493 H         1 UNK         0.3022 
    113 H113      -77.3042   22.3771  -75.2047 H         1 UNK         0.0747 
    114 H114      -77.6521   22.0165  -72.7554 H         1 UNK         0.0793 
    115 H115      -79.0029   21.3406  -73.6517 H         1 UNK         0.0793 
    116 H116      -79.1799   22.8829  -72.8168 H         1 UNK         0.0793 
    117 H117      -80.0300   23.4995  -75.0178 H         1 UNK         0.3047 
    118 H118      -80.1406   24.4504  -78.4695 H         1 UNK         0.0822 
    119 H119      -82.4387   23.6107  -77.9353 H         1 UNK         0.0807 
    120 H120      -81.8111   22.7558  -76.5290 H         1 UNK         0.0807 
    121 H121      -81.2965   22.2922  -78.1427 H         1 UNK         0.0807 
    122 H122      -81.0815   25.1006  -75.6991 H         1 UNK         0.2946 
    123 H123      -79.4772   27.8028  -75.4786 H         1 UNK         0.1144 
    124 H124      -80.4897   29.3841  -77.0495 H         1 UNK         0.0793 
    125 H125      -81.1496   29.6733  -75.4497 H         1 UNK         0.0793 
    126 H126      -82.1073   28.8253  -76.6652 H         1 UNK         0.0793 
    127 H127      -80.5360   26.8939  -73.8096 H         1 UNK         0.2896 
@<TRIPOS>BOND
     1    1    2 1    
     2    1   67 1    
     3    1   68 1    
     4    1   69 1    
     5    2    3 2    
     6    2    4 am   BACKBONE|DICT|INTERRES
     7    4    5 1    
     8    4   70 1    
     9    5    6 1    
    10    5   65 1    
    11    5   71 1    
    12    6    7 1    
    13    6   72 1    
    14    6   73 1    
    15    7    8 1    
    16    8    9 1    
    17    8   74 1    
    18    8   75 1    
    19    9   10 ar   
    20    9   14 ar   
    21   10   11 ar   
    22   10   76 1    
    23   11   12 ar   
    24   11   48 1    
    25   12   13 ar   
    26   12   77 1    
    27   13   14 ar   
    28   13   15 1    
    29   14   78 1    
    30   15   16 1    
    31   15   79 1    
    32   15   80 1    
    33   16   17 1    
    34   17   18 1    
    35   17   81 1    
    36   17   82 1    
    37   18   19 1    
    38   18   22 1    
    39   18   83 1    
    40   19   20 am   BACKBONE|DICT|INTERRES
    41   19   21 2    
    42   20   84 1    
    43   20   85 1    
    44   22   23 am   BACKBONE|DICT|INTERRES
    45   22   86 1    
    46   23   24 2    
    47   23   25 1    
    48   25   26 1    
    49   25   27 1    
    50   25   87 1    
    51   26   88 1    
    52   26   89 1    
    53   26   90 1    
    54   27   28 am   BACKBONE|DICT|INTERRES
    55   27   91 1    
    56   28   29 2    
    57   28   30 1    
    58   30   31 1    
    59   30   32 1    
    60   30   92 1    
    61   31   93 1    
    62   31   94 1    
    63   31   95 1    
    64   32   33 am   BACKBONE|DICT|INTERRES
    65   32   96 1    
    66   33   34 2    
    67   33   35 1    
    68   35   36 1    
    69   35   37 1    
    70   35   97 1    
    71   36   98 1    
    72   36   99 1    
    73   36  100 1    
    74   37   38 am   BACKBONE|DICT|INTERRES
    75   37  101 1    
    76   38   39 2    
    77   38   40 1    
    78   40   41 1    
    79   40   42 1    
    80   40  102 1    
    81   41  103 1    
    82   41  104 1    
    83   41  105 1    
    84   42   43 am   BACKBONE|DICT|INTERRES
    85   42  106 1    
    86   43   44 2    
    87   43   45 1    
    88   45   46 1    
    89   45   49 1    
    90   45  107 1    
    91   46   47 1    
    92   46  108 1    
    93   46  109 1    
    94   47   48 1    
    95   48  110 1    
    96   48  111 1    
    97   49   50 am   BACKBONE|DICT|INTERRES
    98   49  112 1    
    99   50   51 2    
   100   50   52 1    
   101   52   53 1    
   102   52   54 1    
   103   52  113 1    
   104   53  114 1    
   105   53  115 1    
   106   53  116 1    
   107   54   55 am   BACKBONE|DICT|INTERRES
   108   54  117 1    
   109   55   56 2    
   110   55   57 1    
   111   57   58 1    
   112   57   59 1    
   113   57  118 1    
   114   58  119 1    
   115   58  120 1    
   116   58  121 1    
   117   59   60 am   BACKBONE|DICT|INTERRES
   118   59  122 1    
   119   60   61 2    
   120   60   62 1    
   121   62   63 1    
   122   62   64 1    
   123   62  123 1    
   124   63  124 1    
   125   63  125 1    
   126   63  126 1    
   127   64   65 am   BACKBONE|DICT|INTERRES
   128   64  127 1    
   129   65   66 2    
@<TRIPOS>SUBSTRUCTURE
     1 UNK         1 GROUP             0       ****    0 ROOT    
