@<TRIPOS>MOLECULE
3R135
127   129    1
SMALL
USER_CHARGES


@<TRIPOS>ATOM
      1 CA        -81.8214   30.0812  -75.0722 C.3       0 UNK        -0.1998 
      2 C         -81.2759   28.8926  -74.2963 C.2       0 UNK         0.4909 
      3 O         -80.5405   28.0797  -74.8587 O.2       0 UNK        -0.5240 
      4 N         -81.6264   28.7843  -73.0076 N.am      1 UNK        -0.4739 
      5 CA        -81.1831   27.7067  -72.1179 C.3       1 UNK         0.0864 
      6 C6        -81.5323   27.9611  -70.6280 C.3       11 UNK        -0.0881 
      7 S7        -81.0460   29.6105  -70.0118 S.3       11 UNK        -0.2682 
      8 C8        -79.3159   29.3468  -69.5026 C.3       11 UNK         0.0289 
      9 C9        -78.3880   29.2462  -70.7044 C.ar      11 UNK        -0.0687 
     10 C10       -77.7457   28.0420  -71.0090 C.ar      11 UNK        -0.0823 
     11 C11       -76.9310   27.9418  -72.1410 C.ar      11 UNK        -0.0830 
     12 C12       -76.7447   29.0596  -72.9597 C.ar      11 UNK        -0.1021 
     13 C13       -77.3581   30.2762  -72.6468 C.ar      11 UNK        -0.0753 
     14 C14       -78.1790   30.3627  -71.5197 C.ar      11 UNK        -0.0933 
     15 C15       -77.1260   31.4995  -73.5180 C.3       11 UNK         0.0166 
     16 S16       -75.6165   32.3723  -72.9949 S.3       11 UNK        -0.2615 
     17 C17       -74.7452   32.5965  -74.5838 C.3       11 UNK        -0.0865 
     18 CA        -74.1147   31.2901  -75.1381 C.3       10 UNK         0.0862 
     19 C         -73.4150   31.5397  -76.5065 C.2       10 UNK         0.5551 
     20 N         -72.1233   31.2719  -76.6536 N.am      10 UNK        -0.7319 
     21 O         -74.0612   31.9798  -77.4539 O.2       10 UNK        -0.5018 
     22 N         -73.2847   30.5985  -74.1343 N.am      10 UNK        -0.4509 
     23 C         -73.0543   29.2821  -74.1435 C.2       10 UNK         0.4899 
     24 O         -73.4955   28.5175  -75.0038 O.2       10 UNK        -0.4839 
     25 CA        -72.2019   28.7178  -73.0008 C.3       9 UNK         0.0222 
     26 CB        -72.9521   28.7574  -71.6570 C.3       9 UNK        -0.1966 
     27 N         -71.8740   27.3407  -73.3483 N.am      9 UNK        -0.4218 
     28 C         -70.7661   26.6701  -73.0206 C.2       9 UNK         0.5020 
     29 O         -69.9045   27.0916  -72.2481 O.2       9 UNK        -0.5274 
     30 CA        -70.5818   25.3003  -73.6967 C.3       8 UNK         0.0270 
     31 CB        -71.2880   24.2003  -72.8867 C.3       8 UNK        -0.1976 
     32 N         -71.0932   25.2936  -75.0715 N.am      8 UNK        -0.4313 
     33 C         -70.4781   25.8679  -76.1185 C.2       8 UNK         0.5041 
     34 O         -69.3669   26.3943  -76.0554 O.2       8 UNK        -0.5577 
     35 CA        -71.2396   25.8808  -77.4520 C.3       7 UNK         0.0284 
     36 CB        -71.0544   24.5402  -78.1906 C.3       7 UNK        -0.1958 
     37 N         -72.6500   26.1640  -77.2008 N.am      7 UNK        -0.4454 
     38 C         -73.6291   26.3863  -78.0765 C.2       7 UNK         0.5089 
     39 O         -73.4739   26.3918  -79.2990 O.2       7 UNK        -0.5125 
     40 CA        -75.0224   26.6335  -77.4562 C.3       6 UNK         0.0408 
     41 CB        -76.0609   27.0621  -78.5075 C.3       6 UNK        -0.1791 
     42 N         -75.5509   25.4862  -76.7046 N.am      6 UNK        -0.4762 
     43 C         -75.0624   24.9451  -75.5736 C.2       6 UNK         0.5007 
     44 O         -74.0467   25.3506  -75.0013 O.2       6 UNK        -0.5032 
     45 CA        -75.8309   23.7586  -74.9470 C.3       5 UNK         0.0783 
     46 C46       -76.2287   24.0322  -73.4741 C.3       11 UNK        -0.0857 
     47 S47       -77.3712   25.4431  -73.2454 S.3       11 UNK        -0.2512 
     48 C48       -76.2357   26.6314  -72.4658 C.3       11 UNK         0.0225 
     49 N         -76.9854   23.3244  -75.7374 N.am      5 UNK        -0.4615 
     50 C         -76.9326   22.5519  -76.8307 C.2       4 UNK         0.5053 
     51 O         -75.8858   22.0984  -77.2921 O.2       4 UNK        -0.5105 
     52 CA        -78.2664   22.2339  -77.5335 C.3       4 UNK         0.0263 
     53 CB        -78.7048   20.7934  -77.2246 C.3       4 UNK        -0.1981 
     54 N         -79.3522   23.1479  -77.1675 N.am      4 UNK        -0.4224 
     55 C         -79.4241   24.4437  -77.4939 C.2       3 UNK         0.4895 
     56 O         -78.5911   25.0098  -78.2000 O.2       3 UNK        -0.5091 
     57 CA        -80.5856   25.2570  -76.8961 C.3       3 UNK         0.0250 
     58 CB        -81.8929   25.0340  -77.6806 C.3       3 UNK        -0.1996 
     59 N         -80.7740   25.0643  -75.4489 N.am      3 UNK        -0.4254 
     60 C         -81.1712   23.9655  -74.7838 C.2       2 UNK         0.5004 
     61 O         -81.4599   22.9041  -75.3384 O.2       2 UNK        -0.5226 
     62 CA        -81.2126   24.0245  -73.2442 C.3       2 UNK         0.0269 
     63 CB        -80.2637   22.9775  -72.6348 C.3       2 UNK        -0.1926 
     64 N         -80.8701   25.3459  -72.7101 N.am      2 UNK        -0.4687 
     65 C         -81.7464   26.3500  -72.5825 C.2       1 UNK         0.5165 
     66 O         -82.9513   26.2416  -72.8234 O.2       1 UNK        -0.5079 
     67 H67       -80.9999   30.6890  -75.4504 H         1 UNK         0.0900 
     68 H68       -82.4562   30.7152  -74.4534 H         1 UNK         0.0900 
     69 H69       -82.4100   29.7357  -75.9215 H         1 UNK         0.0900 
     70 H70       -82.2358   29.4722  -72.5891 H         1 UNK         0.2959 
     71 H71       -80.0986   27.6616  -72.2128 H         1 UNK         0.1079 
     72 H72       -82.6094   27.8690  -70.4732 H         1 UNK         0.0837 
     73 H73       -81.0743   27.1988  -69.9947 H         1 UNK         0.0837 
     74 H74       -79.2487   28.4583  -68.8729 H         1 UNK         0.0685 
     75 H75       -79.0007   30.1868  -68.8821 H         1 UNK         0.0685 
     76 H76       -77.8931   27.1760  -70.3781 H         1 UNK         0.1434 
     77 H77       -76.1103   28.9877  -73.8326 H         1 UNK         0.1329 
     78 H78       -78.6646   31.2986  -71.2785 H         1 UNK         0.1335 
     79 H79       -77.9737   32.1831  -73.4509 H         1 UNK         0.0680 
     80 H80       -77.0629   31.1989  -74.5643 H         1 UNK         0.0680 
     81 H81       -75.4458   33.0232  -75.3046 H         1 UNK         0.1032 
     82 H82       -73.9718   33.3525  -74.4363 H         1 UNK         0.1032 
     83 H83       -74.9446   30.6223  -75.3751 H         1 UNK         0.0461 
     84 H84       -71.6823   31.4352  -77.5449 H         1 UNK         0.3453 
     85 H85       -71.5878   30.9077  -75.8826 H         1 UNK         0.3453 
     86 H86       -72.9003   31.1714  -73.3975 H         1 UNK         0.2984 
     87 H87       -71.2856   29.3077  -72.9331 H         1 UNK         0.0554 
     88 H88       -72.3427   28.3469  -70.8518 H         1 UNK         0.0847 
     89 H89       -73.8801   28.1880  -71.6953 H         1 UNK         0.0847 
     90 H90       -73.2106   29.7793  -71.3772 H         1 UNK         0.0847 
     91 H91       -72.5186   26.9311  -74.0153 H         1 UNK         0.3141 
     92 H92       -69.5129   25.0775  -73.7207 H         1 UNK         0.0743 
     93 H93       -72.3659   24.3617  -72.8365 H         1 UNK         0.0784 
     94 H94       -71.1159   23.2155  -73.3213 H         1 UNK         0.0784 
     95 H95       -70.9146   24.1711  -71.8620 H         1 UNK         0.0784 
     96 H96       -72.0124   24.8878  -75.2018 H         1 UNK         0.3213 
     97 H97       -70.8346   26.6874  -78.0665 H         1 UNK         0.0855 
     98 H98       -71.5160   23.7136  -77.6492 H         1 UNK         0.0814 
     99 H99       -69.9961   24.3038  -78.3092 H         1 UNK         0.0814 
    100 H100      -71.4879   24.5680  -79.1901 H         1 UNK         0.0814 
    101 H101      -72.9368   26.1875  -76.2259 H         1 UNK         0.3105 
    102 H102      -74.9239   27.4636  -76.7582 H         1 UNK         0.0547 
    103 H103      -75.7188   27.9362  -79.0632 H         1 UNK         0.0837 
    104 H104      -76.2538   26.2688  -79.2307 H         1 UNK         0.0837 
    105 H105      -77.0098   27.3292  -78.0419 H         1 UNK         0.0837 
    106 H106      -76.3880   25.0691  -77.0892 H         1 UNK         0.3020 
    107 H107      -75.1167   22.9317  -74.9321 H         1 UNK         0.1245 
    108 H108      -75.3331   24.1805  -72.8675 H         1 UNK         0.0781 
    109 H109      -76.7065   23.1451  -73.0560 H         1 UNK         0.0781 
    110 H110      -75.3879   26.8086  -73.1294 H         1 UNK         0.0836 
    111 H111      -75.8266   26.1999  -71.5510 H         1 UNK         0.0836 
    112 H112      -77.8836   23.6667  -75.4305 H         1 UNK         0.3022 
    113 H113      -78.0978   22.3216  -78.6088 H         1 UNK         0.0747 
    114 H114      -79.6070   20.5269  -77.7755 H         1 UNK         0.0793 
    115 H115      -77.9307   20.0787  -77.5081 H         1 UNK         0.0793 
    116 H116      -78.9068   20.6528  -76.1618 H         1 UNK         0.0793 
    117 H117      -80.0923   22.7823  -76.5708 H         1 UNK         0.3047 
    118 H118      -80.3157   26.3081  -77.0127 H         1 UNK         0.0822 
    119 H119      -82.6947   25.6659  -77.2984 H         1 UNK         0.0807 
    120 H120      -82.2308   23.9985  -77.6339 H         1 UNK         0.0807 
    121 H121      -81.7591   25.2822  -78.7343 H         1 UNK         0.0807 
    122 H122      -80.5588   25.8884  -74.8981 H         1 UNK         0.2946 
    123 H123      -82.2317   23.7682  -72.9447 H         1 UNK         0.1144 
    124 H124      -80.2901   23.0028  -71.5454 H         1 UNK         0.0793 
    125 H125      -79.2322   23.1306  -72.9499 H         1 UNK         0.0793 
    126 H126      -80.5474   21.9689  -72.9389 H         1 UNK         0.0793 
    127 H127      -79.8912   25.5106  -72.5140 H         1 UNK         0.2896 
@<TRIPOS>BOND
     1    1    2 1    
     2    1   67 1    
     3    1   68 1    
     4    1   69 1    
     5    2    3 2    
     6    2    4 am   BACKBONE|DICT|INTERRES
     7    4    5 1    
     8    4   70 1    
     9    5    6 1    
    10    5   65 1    
    11    5   71 1    
    12    6    7 1    
    13    6   72 1    
    14    6   73 1    
    15    7    8 1    
    16    8    9 1    
    17    8   74 1    
    18    8   75 1    
    19    9   10 ar   
    20    9   14 ar   
    21   10   11 ar   
    22   10   76 1    
    23   11   12 ar   
    24   11   48 1    
    25   12   13 ar   
    26   12   77 1    
    27   13   14 ar   
    28   13   15 1    
    29   14   78 1    
    30   15   16 1    
    31   15   79 1    
    32   15   80 1    
    33   16   17 1    
    34   17   18 1    
    35   17   81 1    
    36   17   82 1    
    37   18   19 1    
    38   18   22 1    
    39   18   83 1    
    40   19   20 am   BACKBONE|DICT|INTERRES
    41   19   21 2    
    42   20   84 1    
    43   20   85 1    
    44   22   23 am   BACKBONE|DICT|INTERRES
    45   22   86 1    
    46   23   24 2    
    47   23   25 1    
    48   25   26 1    
    49   25   27 1    
    50   25   87 1    
    51   26   88 1    
    52   26   89 1    
    53   26   90 1    
    54   27   28 am   BACKBONE|DICT|INTERRES
    55   27   91 1    
    56   28   29 2    
    57   28   30 1    
    58   30   31 1    
    59   30   32 1    
    60   30   92 1    
    61   31   93 1    
    62   31   94 1    
    63   31   95 1    
    64   32   33 am   BACKBONE|DICT|INTERRES
    65   32   96 1    
    66   33   34 2    
    67   33   35 1    
    68   35   36 1    
    69   35   37 1    
    70   35   97 1    
    71   36   98 1    
    72   36   99 1    
    73   36  100 1    
    74   37   38 am   BACKBONE|DICT|INTERRES
    75   37  101 1    
    76   38   39 2    
    77   38   40 1    
    78   40   41 1    
    79   40   42 1    
    80   40  102 1    
    81   41  103 1    
    82   41  104 1    
    83   41  105 1    
    84   42   43 am   BACKBONE|DICT|INTERRES
    85   42  106 1    
    86   43   44 2    
    87   43   45 1    
    88   45   46 1    
    89   45   49 1    
    90   45  107 1    
    91   46   47 1    
    92   46  108 1    
    93   46  109 1    
    94   47   48 1    
    95   48  110 1    
    96   48  111 1    
    97   49   50 am   BACKBONE|DICT|INTERRES
    98   49  112 1    
    99   50   51 2    
   100   50   52 1    
   101   52   53 1    
   102   52   54 1    
   103   52  113 1    
   104   53  114 1    
   105   53  115 1    
   106   53  116 1    
   107   54   55 am   BACKBONE|DICT|INTERRES
   108   54  117 1    
   109   55   56 2    
   110   55   57 1    
   111   57   58 1    
   112   57   59 1    
   113   57  118 1    
   114   58  119 1    
   115   58  120 1    
   116   58  121 1    
   117   59   60 am   BACKBONE|DICT|INTERRES
   118   59  122 1    
   119   60   61 2    
   120   60   62 1    
   121   62   63 1    
   122   62   64 1    
   123   62  123 1    
   124   63  124 1    
   125   63  125 1    
   126   63  126 1    
   127   64   65 am   BACKBONE|DICT|INTERRES
   128   64  127 1    
   129   65   66 2    
@<TRIPOS>SUBSTRUCTURE
     1 UNK         1 GROUP             0       ****    0 ROOT    
