@<TRIPOS>MOLECULE
3R135
127   129    1
SMALL
USER_CHARGES


@<TRIPOS>ATOM
      1 CA        -74.2834   26.4918  -68.6515 C.3       0 UNK        -0.1998 
      2 C         -75.2578   26.2036  -69.7833 C.2       0 UNK         0.4909 
      3 O         -74.8896   26.3427  -70.9506 O.2       0 UNK        -0.5240 
      4 N         -76.4929   25.8108  -69.4370 N.am      1 UNK        -0.4739 
      5 CA        -77.5865   25.4574  -70.3533 C.3       1 UNK         0.0864 
      6 C6        -78.0335   26.6642  -71.2284 C.3       11 UNK        -0.0881 
      7 S7        -79.8067   26.6389  -71.6615 S.3       11 UNK        -0.2682 
      8 C8        -80.2788   28.3825  -71.4229 C.3       11 UNK         0.0289 
      9 C9        -79.6999   29.2865  -72.5040 C.ar      11 UNK        -0.0687 
     10 C10       -80.3928   29.4875  -73.7014 C.ar      11 UNK        -0.0823 
     11 C11       -79.8816   30.3413  -74.6841 C.ar      11 UNK        -0.0830 
     12 C12       -78.6527   30.9756  -74.4731 C.ar      11 UNK        -0.1021 
     13 C13       -77.9487   30.7886  -73.2786 C.ar      11 UNK        -0.0753 
     14 C14       -78.4890   29.9522  -72.2941 C.ar      11 UNK        -0.0933 
     15 C15       -76.6417   31.5440  -73.0441 C.3       11 UNK         0.0166 
     16 S16       -75.3719   30.5453  -72.2010 S.3       11 UNK        -0.2615 
     17 C17       -73.9686   31.7121  -72.1231 C.3       11 UNK        -0.0865 
     18 CA        -72.8477   31.3965  -73.1586 C.3       10 UNK         0.0862 
     19 C         -71.6821   32.4300  -73.1070 C.2       10 UNK         0.5551 
     20 N         -70.4362   32.0326  -73.3349 N.am      10 UNK        -0.7319 
     21 O         -71.9111   33.6175  -72.8888 O.2       10 UNK        -0.5018 
     22 N         -72.4239   29.9841  -73.1475 N.am      10 UNK        -0.4509 
     23 C         -71.9134   29.3053  -72.1125 C.2       10 UNK         0.4899 
     24 O         -71.6417   29.8126  -71.0230 O.2       10 UNK        -0.4839 
     25 CA        -71.6984   27.7952  -72.3378 C.3       9 UNK         0.0222 
     26 CB        -71.2227   27.0653  -71.0683 C.3       9 UNK        -0.1966 
     27 N         -72.9203   27.1507  -72.8308 N.am      9 UNK        -0.4218 
     28 C         -73.3156   27.1286  -74.1089 C.2       9 UNK         0.5020 
     29 O         -72.6884   27.6680  -75.0253 O.2       9 UNK        -0.5274 
     30 CA        -74.6666   26.4552  -74.3935 C.3       8 UNK         0.0270 
     31 CB        -75.8082   27.4711  -74.2436 C.3       8 UNK        -0.1976 
     32 N         -74.7215   25.8829  -75.7377 N.am      8 UNK        -0.4313 
     33 C         -74.0298   24.8127  -76.1519 C.2       8 UNK         0.5041 
     34 O         -73.2694   24.1697  -75.4263 O.2       8 UNK        -0.5577 
     35 CA        -74.2313   24.3553  -77.6084 C.3       7 UNK         0.0284 
     36 CB        -74.9731   23.0073  -77.6550 C.3       7 UNK        -0.1958 
     37 N         -74.9810   25.3307  -78.4042 N.am      7 UNK        -0.4454 
     38 C         -74.4268   26.2628  -79.1925 C.2       7 UNK         0.5089 
     39 O         -73.2132   26.3803  -79.3635 O.2       7 UNK        -0.5125 
     40 CA        -75.3800   27.2284  -79.9247 C.3       6 UNK         0.0408 
     41 CB        -75.6017   26.7623  -81.3726 C.3       6 UNK        -0.1791 
     42 N         -76.6805   27.3796  -79.2664 N.am      6 UNK        -0.4762 
     43 C         -76.8795   28.0058  -78.0968 C.2       6 UNK         0.5007 
     44 O         -75.9881   28.5870  -77.4812 O.2       6 UNK        -0.5032 
     45 CA        -78.2984   27.9319  -77.4925 C.3       5 UNK         0.0783 
     46 C46       -79.0887   29.2229  -77.8125 C.3       11 UNK        -0.0857 
     47 S47       -80.7599   29.2121  -77.0787 S.3       11 UNK        -0.2512 
     48 C48       -80.6929   30.6301  -75.9404 C.3       11 UNK         0.0225 
     49 N         -79.0292   26.7227  -77.9022 N.am      5 UNK        -0.4615 
     50 C         -78.6645   25.4696  -77.6113 C.2       4 UNK         0.5053 
     51 O         -77.6259   25.1778  -77.0144 O.2       4 UNK        -0.5105 
     52 CA        -79.5754   24.3543  -78.1261 C.3       4 UNK         0.0263 
     53 CB        -79.1477   23.9074  -79.5349 C.3       4 UNK        -0.1981 
     54 N         -79.4765   23.2325  -77.2014 N.am      4 UNK        -0.4224 
     55 C         -80.4646   22.3854  -76.8929 C.2       3 UNK         0.4895 
     56 O         -81.5701   22.3987  -77.4362 O.2       3 UNK        -0.5091 
     57 CA        -80.1859   21.3407  -75.7932 C.3       3 UNK         0.0250 
     58 CB        -79.9316   19.9601  -76.4211 C.3       3 UNK        -0.1996 
     59 N         -79.0655   21.6736  -74.9041 N.am      3 UNK        -0.4254 
     60 C         -79.0410   22.7050  -74.0486 C.2       2 UNK         0.5004 
     61 O         -79.9720   23.5023  -73.9079 O.2       2 UNK        -0.5226 
     62 CA        -77.7535   22.8769  -73.2312 C.3       2 UNK         0.0269 
     63 CB        -76.5340   23.1217  -74.1397 C.3       2 UNK        -0.1926 
     64 N         -77.9114   24.0051  -72.3178 N.am      2 UNK        -0.4687 
     65 C         -77.2684   24.1716  -71.1584 C.2       1 UNK         0.5165 
     66 O         -76.4727   23.3425  -70.7072 O.2       1 UNK        -0.5079 
     67 H67       -73.4299   25.8172  -68.7118 H         1 UNK         0.0900 
     68 H68       -74.7455   26.3669  -67.6725 H         1 UNK         0.0900 
     69 H69       -73.9182   27.5160  -68.7246 H         1 UNK         0.0900 
     70 H70       -76.7053   25.6869  -68.4568 H         1 UNK         0.2959 
     71 H71       -78.4190   25.1888  -69.7009 H         1 UNK         0.1079 
     72 H72       -77.8341   27.5895  -70.6877 H         1 UNK         0.0837 
     73 H73       -77.4454   26.7299  -72.1411 H         1 UNK         0.0837 
     74 H74       -81.3675   28.4525  -71.4329 H         1 UNK         0.0685 
     75 H75       -79.9657   28.7172  -70.4326 H         1 UNK         0.0685 
     76 H76       -81.3412   28.9929  -73.8622 H         1 UNK         0.1434 
     77 H77       -78.2579   31.6421  -75.2279 H         1 UNK         0.1329 
     78 H78       -77.9662   29.8226  -71.3572 H         1 UNK         0.1335 
     79 H79       -76.2299   31.8915  -73.9931 H         1 UNK         0.0680 
     80 H80       -76.8545   32.4317  -72.4470 H         1 UNK         0.0680 
     81 H81       -73.5649   31.6856  -71.1097 H         1 UNK         0.1032 
     82 H82       -74.3428   32.7278  -72.2633 H         1 UNK         0.1032 
     83 H83       -73.2885   31.5401  -74.1456 H         1 UNK         0.0461 
     84 H84       -69.6877   32.7071  -73.3109 H         1 UNK         0.3453 
     85 H85       -70.2396   31.0628  -73.5233 H         1 UNK         0.3453 
     86 H86       -72.5903   29.4655  -74.0030 H         1 UNK         0.2984 
     87 H87       -70.9132   27.6899  -73.0892 H         1 UNK         0.0554 
     88 H88       -71.0676   26.0025  -71.2545 H         1 UNK         0.0847 
     89 H89       -71.9425   27.1625  -70.2563 H         1 UNK         0.0847 
     90 H90       -70.2751   27.4734  -70.7144 H         1 UNK         0.0847 
     91 H91       -73.5607   26.7841  -72.1252 H         1 UNK         0.3141 
     92 H92       -74.8169   25.6484  -73.6733 H         1 UNK         0.0743 
     93 H93       -75.8397   27.8615  -73.2271 H         1 UNK         0.0784 
     94 H94       -75.6799   28.3286  -74.9042 H         1 UNK         0.0784 
     95 H95       -76.7784   27.0204  -74.4537 H         1 UNK         0.0784 
     96 H96       -75.2905   26.3730  -76.4120 H         1 UNK         0.3213 
     97 H97       -73.2388   24.2078  -78.0397 H         1 UNK         0.0855 
     98 H98       -74.4359   22.2454  -77.0886 H         1 UNK         0.0814 
     99 H99       -75.0674   22.6426  -78.6778 H         1 UNK         0.0814 
    100 H100      -75.9751   23.0803  -77.2324 H         1 UNK         0.0814 
    101 H101      -75.9869   25.3256  -78.2777 H         1 UNK         0.3105 
    102 H102      -74.8976   28.2079  -79.9524 H         1 UNK         0.0547 
    103 H103      -74.6522   26.6685  -81.9016 H         1 UNK         0.0837 
    104 H104      -76.0942   25.7899  -81.4142 H         1 UNK         0.0837 
    105 H105      -76.2112   27.4732  -81.9307 H         1 UNK         0.0837 
    106 H106      -77.4720   26.9359  -79.7099 H         1 UNK         0.3020 
    107 H107      -78.1718   27.8782  -76.4083 H         1 UNK         0.1245 
    108 H108      -78.5434   30.0997  -77.4579 H         1 UNK         0.0781 
    109 H109      -79.1969   29.3500  -78.8914 H         1 UNK         0.0781 
    110 H110      -81.7122   30.8872  -75.6486 H         1 UNK         0.0836 
    111 H111      -80.3052   31.5033  -76.4676 H         1 UNK         0.0836 
    112 H112      -79.8981   26.8817  -78.3923 H         1 UNK         0.3022 
    113 H113      -80.6028   24.7245  -78.1504 H         1 UNK         0.0747 
    114 H114      -79.7882   23.1073  -79.9065 H         1 UNK         0.0793 
    115 H115      -79.2145   24.7311  -80.2466 H         1 UNK         0.0793 
    116 H116      -78.1191   23.5440  -79.5477 H         1 UNK         0.0793 
    117 H117      -78.6138   23.2019  -76.6742 H         1 UNK         0.3047 
    118 H118      -81.0870   21.2761  -75.1795 H         1 UNK         0.0822 
    119 H119      -79.8256   19.1888  -75.6580 H         1 UNK         0.0807 
    120 H120      -79.0293   19.9552  -77.0340 H         1 UNK         0.0807 
    121 H121      -80.7624   19.6637  -77.0633 H         1 UNK         0.0807 
    122 H122      -78.2611   21.0647  -74.9535 H         1 UNK         0.2946 
    123 H123      -77.6036   21.9623  -72.6526 H         1 UNK         0.1144 
    124 H124      -75.6243   23.2656  -73.5564 H         1 UNK         0.0793 
    125 H125      -76.6751   24.0079  -74.7586 H         1 UNK         0.0793 
    126 H126      -76.3502   22.2791  -74.8064 H         1 UNK         0.0793 
    127 H127      -78.6277   24.6706  -72.5892 H         1 UNK         0.2896 
@<TRIPOS>BOND
     1    1    2 1    
     2    1   67 1    
     3    1   68 1    
     4    1   69 1    
     5    2    3 2    
     6    2    4 am   BACKBONE|DICT|INTERRES
     7    4    5 1    
     8    4   70 1    
     9    5    6 1    
    10    5   65 1    
    11    5   71 1    
    12    6    7 1    
    13    6   72 1    
    14    6   73 1    
    15    7    8 1    
    16    8    9 1    
    17    8   74 1    
    18    8   75 1    
    19    9   10 ar   
    20    9   14 ar   
    21   10   11 ar   
    22   10   76 1    
    23   11   12 ar   
    24   11   48 1    
    25   12   13 ar   
    26   12   77 1    
    27   13   14 ar   
    28   13   15 1    
    29   14   78 1    
    30   15   16 1    
    31   15   79 1    
    32   15   80 1    
    33   16   17 1    
    34   17   18 1    
    35   17   81 1    
    36   17   82 1    
    37   18   19 1    
    38   18   22 1    
    39   18   83 1    
    40   19   20 am   BACKBONE|DICT|INTERRES
    41   19   21 2    
    42   20   84 1    
    43   20   85 1    
    44   22   23 am   BACKBONE|DICT|INTERRES
    45   22   86 1    
    46   23   24 2    
    47   23   25 1    
    48   25   26 1    
    49   25   27 1    
    50   25   87 1    
    51   26   88 1    
    52   26   89 1    
    53   26   90 1    
    54   27   28 am   BACKBONE|DICT|INTERRES
    55   27   91 1    
    56   28   29 2    
    57   28   30 1    
    58   30   31 1    
    59   30   32 1    
    60   30   92 1    
    61   31   93 1    
    62   31   94 1    
    63   31   95 1    
    64   32   33 am   BACKBONE|DICT|INTERRES
    65   32   96 1    
    66   33   34 2    
    67   33   35 1    
    68   35   36 1    
    69   35   37 1    
    70   35   97 1    
    71   36   98 1    
    72   36   99 1    
    73   36  100 1    
    74   37   38 am   BACKBONE|DICT|INTERRES
    75   37  101 1    
    76   38   39 2    
    77   38   40 1    
    78   40   41 1    
    79   40   42 1    
    80   40  102 1    
    81   41  103 1    
    82   41  104 1    
    83   41  105 1    
    84   42   43 am   BACKBONE|DICT|INTERRES
    85   42  106 1    
    86   43   44 2    
    87   43   45 1    
    88   45   46 1    
    89   45   49 1    
    90   45  107 1    
    91   46   47 1    
    92   46  108 1    
    93   46  109 1    
    94   47   48 1    
    95   48  110 1    
    96   48  111 1    
    97   49   50 am   BACKBONE|DICT|INTERRES
    98   49  112 1    
    99   50   51 2    
   100   50   52 1    
   101   52   53 1    
   102   52   54 1    
   103   52  113 1    
   104   53  114 1    
   105   53  115 1    
   106   53  116 1    
   107   54   55 am   BACKBONE|DICT|INTERRES
   108   54  117 1    
   109   55   56 2    
   110   55   57 1    
   111   57   58 1    
   112   57   59 1    
   113   57  118 1    
   114   58  119 1    
   115   58  120 1    
   116   58  121 1    
   117   59   60 am   BACKBONE|DICT|INTERRES
   118   59  122 1    
   119   60   61 2    
   120   60   62 1    
   121   62   63 1    
   122   62   64 1    
   123   62  123 1    
   124   63  124 1    
   125   63  125 1    
   126   63  126 1    
   127   64   65 am   BACKBONE|DICT|INTERRES
   128   64  127 1    
   129   65   66 2    
@<TRIPOS>SUBSTRUCTURE
     1 UNK         1 GROUP             0       ****    0 ROOT    
