@<TRIPOS>MOLECULE
3R135
127   129    1
SMALL
USER_CHARGES


@<TRIPOS>ATOM
      1 CA        -84.4489   30.6781  -73.5076 C.3       0 UNK        -0.1998 
      2 C         -83.2604   29.7283  -73.5087 C.2       0 UNK         0.4909 
      3 O         -82.4167   29.8040  -74.4025 O.2       0 UNK        -0.5240 
      4 N         -83.1824   28.8424  -72.5083 N.am      1 UNK        -0.4739 
      5 CA        -82.1359   27.8231  -72.3738 C.3       1 UNK         0.0864 
      6 C6        -82.1295   27.1945  -70.9557 C.3       11 UNK        -0.0881 
      7 S7        -81.9543   28.3372  -69.5348 S.3       11 UNK        -0.2682 
      8 C8        -80.9355   29.7314  -70.1413 C.3       11 UNK         0.0289 
      9 C9        -79.4817   29.4140  -70.5004 C.ar      11 UNK        -0.0687 
     10 C10       -78.8751   28.1769  -70.2389 C.ar      11 UNK        -0.0823 
     11 C11       -77.5368   27.9532  -70.5736 C.ar      11 UNK        -0.0830 
     12 C12       -76.7861   28.9890  -71.1356 C.ar      11 UNK        -0.1021 
     13 C13       -77.3789   30.2195  -71.4246 C.ar      11 UNK        -0.0753 
     14 C14       -78.7241   30.4226  -71.1052 C.ar      11 UNK        -0.0933 
     15 C15       -76.5696   31.3354  -72.0698 C.3       11 UNK         0.0166 
     16 S16       -76.5248   31.1815  -73.8865 S.3       11 UNK        -0.2615 
     17 C17       -75.0375   30.1517  -74.1435 C.3       11 UNK        -0.0865 
     18 CA        -73.7921   30.9729  -74.5866 C.3       10 UNK         0.0862 
     19 C         -73.2393   31.8730  -73.4427 C.2       10 UNK         0.5551 
     20 N         -72.4950   31.3260  -72.4911 N.am      10 UNK        -0.7319 
     21 O         -73.4757   33.0782  -73.4301 O.2       10 UNK        -0.5018 
     22 N         -72.7544   30.1475  -75.2335 N.am      10 UNK        -0.4509 
     23 C         -72.1195   29.0952  -74.7027 C.2       10 UNK         0.4899 
     24 O         -72.3800   28.6166  -73.5967 O.2       10 UNK        -0.4839 
     25 CA        -70.9460   28.5258  -75.5057 C.3       9 UNK         0.0222 
     26 CB        -69.6242   29.0424  -74.8961 C.3       9 UNK        -0.1966 
     27 N         -71.0426   27.0668  -75.4741 N.am      9 UNK        -0.4218 
     28 C         -70.1785   26.1738  -75.9740 C.2       9 UNK         0.5020 
     29 O         -69.1162   26.4613  -76.5269 O.2       9 UNK        -0.5274 
     30 CA        -70.5964   24.6994  -75.8761 C.3       8 UNK         0.0270 
     31 CB        -70.8346   24.2554  -74.4210 C.3       8 UNK        -0.1976 
     32 N         -71.8017   24.4835  -76.6742 N.am      8 UNK        -0.4313 
     33 C         -71.7966   24.2115  -77.9870 C.2       8 UNK         0.5041 
     34 O         -70.7765   23.9614  -78.6313 O.2       8 UNK        -0.5577 
     35 CA        -73.1507   24.2263  -78.7204 C.3       7 UNK         0.0284 
     36 CB        -73.7394   22.8075  -78.7827 C.3       7 UNK        -0.1958 
     37 N         -74.1356   25.1329  -78.1258 N.am      7 UNK        -0.4454 
     38 C         -74.0108   26.4643  -78.0330 C.2       7 UNK         0.5089 
     39 O         -73.0737   27.1033  -78.5111 O.2       7 UNK        -0.5125 
     40 CA        -75.0956   27.2077  -77.2328 C.3       6 UNK         0.0408 
     41 CB        -76.2521   27.6299  -78.1511 C.3       6 UNK        -0.1791 
     42 N         -75.6270   26.4468  -76.0954 N.am      6 UNK        -0.4762 
     43 C         -74.9008   25.9913  -75.0624 C.2       6 UNK         0.5007 
     44 O         -73.6807   26.1165  -74.9736 O.2       6 UNK        -0.5032 
     45 CA        -75.6647   25.2309  -73.9668 C.3       5 UNK         0.0783 
     46 C46       -76.4992   26.2161  -73.1173 C.3       11 UNK        -0.0857 
     47 S47       -77.3171   25.4260  -71.6906 S.3       11 UNK        -0.2512 
     48 C48       -76.9068   26.5859  -70.3426 C.3       11 UNK         0.0225 
     49 N         -76.4646   24.1642  -74.5712 N.am      5 UNK        -0.4615 
     50 C         -75.9410   23.0313  -75.0637 C.2       4 UNK         0.5053 
     51 O         -74.7518   22.7298  -74.9631 O.2       4 UNK        -0.5105 
     52 CA        -76.8873   22.0828  -75.8226 C.3       4 UNK         0.0263 
     53 CB        -77.4802   21.0379  -74.8641 C.3       4 UNK        -0.1981 
     54 N         -77.9757   22.7747  -76.5166 N.am      4 UNK        -0.4224 
     55 C         -77.8170   23.6807  -77.4929 C.2       3 UNK         0.4895 
     56 O         -76.7271   23.9820  -77.9751 O.2       3 UNK        -0.5091 
     57 CA        -79.0784   24.4150  -77.9800 C.3       3 UNK         0.0250 
     58 CB        -79.6323   23.7460  -79.2477 C.3       3 UNK        -0.1996 
     59 N         -80.1383   24.5032  -76.9690 N.am      3 UNK        -0.4254 
     60 C         -80.0227   25.1271  -75.7883 C.2       2 UNK         0.5004 
     61 O         -78.9992   25.7034  -75.4087 O.2       2 UNK        -0.5226 
     62 CA        -81.2282   25.0175  -74.8528 C.3       2 UNK         0.0269 
     63 CB        -81.1874   23.6893  -74.0746 C.3       2 UNK        -0.1926 
     64 N         -81.2246   26.1303  -73.9065 N.am      2 UNK        -0.4687 
     65 C         -82.3291   26.7104  -73.4247 C.2       1 UNK         0.5165 
     66 O         -83.4715   26.3625  -73.7386 O.2       1 UNK        -0.5079 
     67 H67       -85.0361   30.5447  -74.4157 H         1 UNK         0.0900 
     68 H68       -84.1037   31.7110  -73.4729 H         1 UNK         0.0900 
     69 H69       -85.1037   30.5107  -72.6526 H         1 UNK         0.0900 
     70 H70       -83.9119   28.8100  -71.8108 H         1 UNK         0.2959 
     71 H71       -81.1694   28.2956  -72.5615 H         1 UNK         0.1079 
     72 H72       -83.0512   26.6315  -70.7930 H         1 UNK         0.0837 
     73 H73       -81.3257   26.4594  -70.8816 H         1 UNK         0.0837 
     74 H74       -81.4288   30.2054  -70.9893 H         1 UNK         0.0685 
     75 H75       -80.9215   30.4850  -69.3528 H         1 UNK         0.0685 
     76 H76       -79.4315   27.3745  -69.7779 H         1 UNK         0.1434 
     77 H77       -75.7424   28.8302  -71.3629 H         1 UNK         0.1329 
     78 H78       -79.1826   31.3785  -71.3200 H         1 UNK         0.1335 
     79 H79       -75.5577   31.3506  -71.6629 H         1 UNK         0.0680 
     80 H80       -77.0062   32.3028  -71.8172 H         1 UNK         0.0680 
     81 H81       -75.2896   29.4235  -74.9147 H         1 UNK         0.1032 
     82 H82       -74.8194   29.5652  -73.2523 H         1 UNK         0.1032 
     83 H83       -74.1212   31.6503  -75.3763 H         1 UNK         0.0461 
     84 H84       -72.1231   31.8973  -71.7493 H         1 UNK         0.3453 
     85 H85       -72.3038   30.3318  -72.5247 H         1 UNK         0.3453 
     86 H86       -72.4368   30.4915  -76.1289 H         1 UNK         0.2984 
     87 H87       -71.0242   28.8496  -76.5451 H         1 UNK         0.0554 
     88 H88       -68.7637   28.7979  -75.5175 H         1 UNK         0.0847 
     89 H89       -69.4511   28.6267  -73.9026 H         1 UNK         0.0847 
     90 H90       -69.6366   30.1287  -74.7956 H         1 UNK         0.0847 
     91 H91       -71.9149   26.7222  -75.0727 H         1 UNK         0.3141 
     92 H92       -69.7811   24.0908  -76.2738 H         1 UNK         0.0743 
     93 H93       -69.9414   24.4166  -73.8161 H         1 UNK         0.0784 
     94 H94       -71.6512   24.7979  -73.9449 H         1 UNK         0.0784 
     95 H95       -71.0723   23.1927  -74.3702 H         1 UNK         0.0784 
     96 H96       -72.6822   24.7256  -76.2344 H         1 UNK         0.3213 
     97 H97       -72.9648   24.5664  -79.7413 H         1 UNK         0.0855 
     98 H98       -73.0315   22.1086  -79.2303 H         1 UNK         0.0814 
     99 H99       -74.6461   22.7803  -79.3874 H         1 UNK         0.0814 
    100 H100      -73.9877   22.4314  -77.7894 H         1 UNK         0.0814 
    101 H101      -75.0014   24.7109  -77.7964 H         1 UNK         0.3105 
    102 H102      -74.6350   28.1117  -76.8304 H         1 UNK         0.0547 
    103 H103      -75.8901   28.2516  -78.9710 H         1 UNK         0.0837 
    104 H104      -76.7499   26.7671  -78.5941 H         1 UNK         0.0837 
    105 H105      -76.9995   28.2110  -77.6106 H         1 UNK         0.0837 
    106 H106      -76.6226   26.2662  -76.0941 H         1 UNK         0.3020 
    107 H107      -74.9195   24.7721  -73.3122 H         1 UNK         0.1245 
    108 H108      -77.2633   26.7147  -73.7156 H         1 UNK         0.0781 
    109 H109      -75.8417   27.0051  -72.7534 H         1 UNK         0.0781 
    110 H110      -75.8228   26.6688  -70.2489 H         1 UNK         0.0836 
    111 H111      -77.2622   26.1717  -69.3979 H         1 UNK         0.0836 
    112 H112      -77.4455   24.3695  -74.7157 H         1 UNK         0.3022 
    113 H113      -76.2932   21.5620  -76.5767 H         1 UNK         0.0747 
    114 H114      -78.0854   20.3056  -75.3988 H         1 UNK         0.0793 
    115 H115      -76.6903   20.4886  -74.3497 H         1 UNK         0.0793 
    116 H116      -78.1066   21.4998  -74.0996 H         1 UNK         0.0793 
    117 H117      -78.9125   22.5856  -76.1937 H         1 UNK         0.3047 
    118 H118      -78.7818   25.4346  -78.2330 H         1 UNK         0.0822 
    119 H119      -80.4700   24.3084  -79.6605 H         1 UNK         0.0807 
    120 H120      -79.9725   22.7280  -79.0532 H         1 UNK         0.0807 
    121 H121      -78.8682   23.6911  -80.0247 H         1 UNK         0.0807 
    122 H122      -81.0101   24.0445  -77.1940 H         1 UNK         0.2946 
    123 H123      -82.1328   25.0545  -75.4650 H         1 UNK         0.1144 
    124 H124      -82.0510   23.5898  -73.4167 H         1 UNK         0.0793 
    125 H125      -80.2896   23.6111  -73.4595 H         1 UNK         0.0793 
    126 H126      -81.1990   22.8329  -74.7498 H         1 UNK         0.0793 
    127 H127      -80.3058   26.4800  -73.6640 H         1 UNK         0.2896 
@<TRIPOS>BOND
     1    1    2 1    
     2    1   67 1    
     3    1   68 1    
     4    1   69 1    
     5    2    3 2    
     6    2    4 am   BACKBONE|DICT|INTERRES
     7    4    5 1    
     8    4   70 1    
     9    5    6 1    
    10    5   65 1    
    11    5   71 1    
    12    6    7 1    
    13    6   72 1    
    14    6   73 1    
    15    7    8 1    
    16    8    9 1    
    17    8   74 1    
    18    8   75 1    
    19    9   10 ar   
    20    9   14 ar   
    21   10   11 ar   
    22   10   76 1    
    23   11   12 ar   
    24   11   48 1    
    25   12   13 ar   
    26   12   77 1    
    27   13   14 ar   
    28   13   15 1    
    29   14   78 1    
    30   15   16 1    
    31   15   79 1    
    32   15   80 1    
    33   16   17 1    
    34   17   18 1    
    35   17   81 1    
    36   17   82 1    
    37   18   19 1    
    38   18   22 1    
    39   18   83 1    
    40   19   20 am   BACKBONE|DICT|INTERRES
    41   19   21 2    
    42   20   84 1    
    43   20   85 1    
    44   22   23 am   BACKBONE|DICT|INTERRES
    45   22   86 1    
    46   23   24 2    
    47   23   25 1    
    48   25   26 1    
    49   25   27 1    
    50   25   87 1    
    51   26   88 1    
    52   26   89 1    
    53   26   90 1    
    54   27   28 am   BACKBONE|DICT|INTERRES
    55   27   91 1    
    56   28   29 2    
    57   28   30 1    
    58   30   31 1    
    59   30   32 1    
    60   30   92 1    
    61   31   93 1    
    62   31   94 1    
    63   31   95 1    
    64   32   33 am   BACKBONE|DICT|INTERRES
    65   32   96 1    
    66   33   34 2    
    67   33   35 1    
    68   35   36 1    
    69   35   37 1    
    70   35   97 1    
    71   36   98 1    
    72   36   99 1    
    73   36  100 1    
    74   37   38 am   BACKBONE|DICT|INTERRES
    75   37  101 1    
    76   38   39 2    
    77   38   40 1    
    78   40   41 1    
    79   40   42 1    
    80   40  102 1    
    81   41  103 1    
    82   41  104 1    
    83   41  105 1    
    84   42   43 am   BACKBONE|DICT|INTERRES
    85   42  106 1    
    86   43   44 2    
    87   43   45 1    
    88   45   46 1    
    89   45   49 1    
    90   45  107 1    
    91   46   47 1    
    92   46  108 1    
    93   46  109 1    
    94   47   48 1    
    95   48  110 1    
    96   48  111 1    
    97   49   50 am   BACKBONE|DICT|INTERRES
    98   49  112 1    
    99   50   51 2    
   100   50   52 1    
   101   52   53 1    
   102   52   54 1    
   103   52  113 1    
   104   53  114 1    
   105   53  115 1    
   106   53  116 1    
   107   54   55 am   BACKBONE|DICT|INTERRES
   108   54  117 1    
   109   55   56 2    
   110   55   57 1    
   111   57   58 1    
   112   57   59 1    
   113   57  118 1    
   114   58  119 1    
   115   58  120 1    
   116   58  121 1    
   117   59   60 am   BACKBONE|DICT|INTERRES
   118   59  122 1    
   119   60   61 2    
   120   60   62 1    
   121   62   63 1    
   122   62   64 1    
   123   62  123 1    
   124   63  124 1    
   125   63  125 1    
   126   63  126 1    
   127   64   65 am   BACKBONE|DICT|INTERRES
   128   64  127 1    
   129   65   66 2    
@<TRIPOS>SUBSTRUCTURE
     1 UNK         1 GROUP             0       ****    0 ROOT    
