@<TRIPOS>MOLECULE
3R135
127   129    1
SMALL
USER_CHARGES


@<TRIPOS>ATOM
      1 CA        -84.4027   27.6452  -72.8570 C.3       0 UNK        -0.1998 
      2 C         -82.9512   27.2829  -73.1284 C.2       0 UNK         0.4909 
      3 O         -82.3744   27.7482  -74.1104 O.2       0 UNK        -0.5240 
      4 N         -82.3527   26.4386  -72.2789 N.am      1 UNK        -0.4739 
      5 CA        -80.9548   25.9843  -72.3465 C.3       1 UNK         0.0864 
      6 C6        -80.4161   25.6618  -70.9212 C.3       11 UNK        -0.0881 
      7 S7        -78.7575   26.3526  -70.5947 S.3       11 UNK        -0.2682 
      8 C8        -79.1195   28.0400  -70.0003 C.3       11 UNK         0.0289 
      9 C9        -78.6850   29.0826  -71.0206 C.ar      11 UNK        -0.0687 
     10 C10       -79.4927   29.3516  -72.1277 C.ar      11 UNK        -0.0823 
     11 C11       -79.0666   30.2352  -73.1189 C.ar      11 UNK        -0.0830 
     12 C12       -77.8693   30.9329  -72.9507 C.ar      11 UNK        -0.1021 
     13 C13       -77.0649   30.7012  -71.8332 C.ar      11 UNK        -0.0753 
     14 C14       -77.4693   29.7627  -70.8761 C.ar      11 UNK        -0.0933 
     15 C15       -75.7552   31.4609  -71.6855 C.3       11 UNK         0.0166 
     16 S16       -74.5408   30.9462  -72.9410 S.3       11 UNK        -0.2615 
     17 C17       -74.1139   29.2788  -72.3419 C.3       11 UNK        -0.0865 
     18 CA        -72.6281   28.9310  -72.6102 C.3       10 UNK         0.0862 
     19 C         -72.1492   27.7171  -71.7577 C.2       10 UNK         0.5551 
     20 N         -71.4832   26.7131  -72.3156 N.am      10 UNK        -0.7319 
     21 O         -72.3624   27.6967  -70.5478 O.2       10 UNK        -0.5018 
     22 N         -72.3710   28.7910  -74.0527 N.am      10 UNK        -0.4509 
     23 C         -71.2248   29.1214  -74.6610 C.2       10 UNK         0.4899 
     24 O         -70.2832   29.6774  -74.0928 O.2       10 UNK        -0.4839 
     25 CA        -71.1079   28.7370  -76.1521 C.3       9 UNK         0.0222 
     26 CB        -69.6607   28.8143  -76.6819 C.3       9 UNK        -0.1966 
     27 N         -71.6961   27.4241  -76.4510 N.am      9 UNK        -0.4218 
     28 C         -71.3990   26.2523  -75.8647 C.2       9 UNK         0.5020 
     29 O         -70.5003   26.1206  -75.0328 O.2       9 UNK        -0.5274 
     30 CA        -72.2732   25.0317  -76.2012 C.3       8 UNK         0.0270 
     31 CB        -72.8336   24.4118  -74.9091 C.3       8 UNK        -0.1976 
     32 N         -73.3915   25.3813  -77.0808 N.am      8 UNK        -0.4313 
     33 C         -73.4610   25.0920  -78.3878 C.2       8 UNK         0.5041 
     34 O         -72.6215   24.4178  -78.9861 O.2       8 UNK        -0.5577 
     35 CA        -74.6434   25.6835  -79.1828 C.3       7 UNK         0.0284 
     36 CB        -75.7907   24.6661  -79.2890 C.3       7 UNK        -0.1958 
     37 N         -75.1654   26.9369  -78.6302 N.am      7 UNK        -0.4454 
     38 C         -74.4681   28.0724  -78.4830 C.2       7 UNK         0.5089 
     39 O         -73.3056   28.2145  -78.8594 O.2       7 UNK        -0.5125 
     40 CA        -75.1516   29.2190  -77.7185 C.3       6 UNK         0.0408 
     41 CB        -75.7585   30.2333  -78.6994 C.3       6 UNK        -0.1791 
     42 N         -76.1869   28.7754  -76.7793 N.am      6 UNK        -0.4762 
     43 C         -76.0111   27.9634  -75.7286 C.2       6 UNK         0.5007 
     44 O         -74.9097   27.4712  -75.4603 O.2       6 UNK        -0.5032 
     45 CA        -77.2604   27.6327  -74.8635 C.3       5 UNK         0.0783 
     46 C46       -78.6404   28.0250  -75.4889 C.3       11 UNK        -0.0857 
     47 S47       -78.9284   29.8040  -75.8407 S.3       11 UNK        -0.2512 
     48 C48       -79.8700   30.3947  -74.3969 C.3       11 UNK         0.0225 
     49 N         -77.2462   26.2028  -74.5164 N.am      5 UNK        -0.4615 
     50 C         -76.5128   25.6490  -73.5355 C.2       4 UNK         0.5053 
     51 O         -75.8607   26.3074  -72.7274 O.2       4 UNK        -0.5105 
     52 CA        -76.4646   24.1102  -73.4253 C.3       4 UNK         0.0263 
     53 CB        -76.8074   23.6207  -72.0076 C.3       4 UNK        -0.1981 
     54 N         -77.3316   23.4268  -74.3853 N.am      4 UNK        -0.4224 
     55 C         -76.9417   22.9917  -75.5927 C.2       3 UNK         0.4895 
     56 O         -75.7954   23.1017  -76.0219 O.2       3 UNK        -0.5091 
     57 CA        -78.0039   22.3328  -76.4939 C.3       3 UNK         0.0250 
     58 CB        -77.8856   20.8016  -76.4306 C.3       3 UNK        -0.1996 
     59 N         -79.3814   22.7222  -76.1823 N.am      3 UNK        -0.4254 
     60 C         -79.8544   23.9738  -76.2396 C.2       2 UNK         0.5004 
     61 O         -79.1753   24.9407  -76.5879 O.2       2 UNK        -0.5226 
     62 CA        -81.3023   24.2073  -75.7767 C.3       2 UNK         0.0269 
     63 CB        -82.1137   22.9151  -75.5265 C.3       2 UNK        -0.1926 
     64 N         -81.3371   25.0708  -74.5925 N.am      2 UNK        -0.4687 
     65 C         -80.7468   24.8713  -73.4034 C.2       1 UNK         0.5165 
     66 O         -80.0735   23.8728  -73.1420 O.2       1 UNK        -0.5079 
     67 H67       -84.7827   27.1615  -71.9574 H         1 UNK         0.0900 
     68 H68       -85.0279   27.3418  -73.6962 H         1 UNK         0.0900 
     69 H69       -84.5015   28.7230  -72.7303 H         1 UNK         0.0900 
     70 H70       -82.8950   26.0505  -71.5196 H         1 UNK         0.2959 
     71 H71       -80.3614   26.8035  -72.7459 H         1 UNK         0.1079 
     72 H72       -81.0844   26.0525  -70.1523 H         1 UNK         0.0837 
     73 H73       -80.3879   24.5875  -70.7309 H         1 UNK         0.0837 
     74 H74       -80.1816   28.1559  -69.7810 H         1 UNK         0.0685 
     75 H75       -78.5963   28.1968  -69.0559 H         1 UNK         0.0685 
     76 H76       -80.4432   28.8529  -72.2348 H         1 UNK         0.1434 
     77 H77       -77.5417   31.6283  -73.7119 H         1 UNK         0.1329 
     78 H78       -76.8385   29.5592  -70.0218 H         1 UNK         0.1335 
     79 H79       -75.3340   31.3336  -70.6871 H         1 UNK         0.0680 
     80 H80       -75.9482   32.5284  -71.8013 H         1 UNK         0.0680 
     81 H81       -74.7716   28.5581  -72.8247 H         1 UNK         0.1032 
     82 H82       -74.3394   29.2251  -71.2755 H         1 UNK         0.1032 
     83 H83       -72.0372   29.7707  -72.2393 H         1 UNK         0.0461 
     84 H84       -71.1792   25.9505  -71.7326 H         1 UNK         0.3453 
     85 H85       -71.2380   26.7174  -73.2993 H         1 UNK         0.3453 
     86 H86       -73.0962   28.3236  -74.5845 H         1 UNK         0.2984 
     87 H87       -71.7009   29.4692  -76.7019 H         1 UNK         0.0554 
     88 H88       -69.6129   28.5627  -77.7413 H         1 UNK         0.0847 
     89 H89       -68.9967   28.1356  -76.1454 H         1 UNK         0.0847 
     90 H90       -69.2558   29.8209  -76.5710 H         1 UNK         0.0847 
     91 H91       -72.4155   27.4306  -77.1651 H         1 UNK         0.3141 
     92 H92       -71.6241   24.2949  -76.6783 H         1 UNK         0.0743 
     93 H93       -73.4862   25.1082  -74.3807 H         1 UNK         0.0784 
     94 H94       -73.3999   23.5061  -75.1209 H         1 UNK         0.0784 
     95 H95       -72.0341   24.1295  -74.2230 H         1 UNK         0.0784 
     96 H96       -74.1215   25.9487  -76.6616 H         1 UNK         0.3213 
     97 H97       -74.2789   25.8951  -80.1903 H         1 UNK         0.0855 
     98 H98       -76.2518   24.4793  -78.3193 H         1 UNK         0.0814 
     99 H99       -75.4328   23.7087  -79.6704 H         1 UNK         0.0814 
    100 H100      -76.5689   25.0140  -79.9685 H         1 UNK         0.0814 
    101 H101      -76.1137   26.9223  -78.2842 H         1 UNK         0.3105 
    102 H102      -74.3802   29.7265  -77.1355 H         1 UNK         0.0547 
    103 H103      -75.0039   30.6039  -79.3947 H         1 UNK         0.0837 
    104 H104      -76.5603   29.7922  -79.2927 H         1 UNK         0.0837 
    105 H105      -76.1652   31.0982  -78.1750 H         1 UNK         0.0837 
    106 H106      -77.1133   29.1658  -76.9086 H         1 UNK         0.3020 
    107 H107      -77.1437   28.2054  -73.9405 H         1 UNK         0.1245 
    108 H108      -79.4458   27.6817  -74.8386 H         1 UNK         0.0781 
    109 H109      -78.7846   27.4896  -76.4281 H         1 UNK         0.0781 
    110 H110      -80.8191   29.8609  -74.3415 H         1 UNK         0.0836 
    111 H111      -80.1165   31.4478  -74.5380 H         1 UNK         0.0836 
    112 H112      -77.7427   25.5918  -75.1548 H         1 UNK         0.3022 
    113 H113      -75.4283   23.8260  -73.6136 H         1 UNK         0.0747 
    114 H114      -76.6404   22.5480  -71.9109 H         1 UNK         0.0793 
    115 H115      -76.1869   24.1121  -71.2571 H         1 UNK         0.0793 
    116 H116      -77.8468   23.8185  -71.7506 H         1 UNK         0.0793 
    117 H117      -78.3049   23.3291  -74.1134 H         1 UNK         0.3047 
    118 H118      -77.7980   22.6492  -77.5185 H         1 UNK         0.0822 
    119 H119      -78.5660   20.3202  -77.1334 H         1 UNK         0.0807 
    120 H120      -78.1058   20.4206  -75.4325 H         1 UNK         0.0807 
    121 H121      -76.8759   20.4775  -76.6875 H         1 UNK         0.0807 
    122 H122      -79.9984   21.9922  -75.8563 H         1 UNK         0.2946 
    123 H123      -81.7907   24.7571  -76.5831 H         1 UNK         0.1144 
    124 H124      -82.1439   22.2877  -76.4184 H         1 UNK         0.0793 
    125 H125      -83.1472   23.1509  -75.2720 H         1 UNK         0.0793 
    126 H126      -81.7068   22.3180  -74.7096 H         1 UNK         0.0793 
    127 H127      -81.8196   25.9576  -74.7084 H         1 UNK         0.2896 
@<TRIPOS>BOND
     1    1    2 1    
     2    1   67 1    
     3    1   68 1    
     4    1   69 1    
     5    2    3 2    
     6    2    4 am   BACKBONE|DICT|INTERRES
     7    4    5 1    
     8    4   70 1    
     9    5    6 1    
    10    5   65 1    
    11    5   71 1    
    12    6    7 1    
    13    6   72 1    
    14    6   73 1    
    15    7    8 1    
    16    8    9 1    
    17    8   74 1    
    18    8   75 1    
    19    9   10 ar   
    20    9   14 ar   
    21   10   11 ar   
    22   10   76 1    
    23   11   12 ar   
    24   11   48 1    
    25   12   13 ar   
    26   12   77 1    
    27   13   14 ar   
    28   13   15 1    
    29   14   78 1    
    30   15   16 1    
    31   15   79 1    
    32   15   80 1    
    33   16   17 1    
    34   17   18 1    
    35   17   81 1    
    36   17   82 1    
    37   18   19 1    
    38   18   22 1    
    39   18   83 1    
    40   19   20 am   BACKBONE|DICT|INTERRES
    41   19   21 2    
    42   20   84 1    
    43   20   85 1    
    44   22   23 am   BACKBONE|DICT|INTERRES
    45   22   86 1    
    46   23   24 2    
    47   23   25 1    
    48   25   26 1    
    49   25   27 1    
    50   25   87 1    
    51   26   88 1    
    52   26   89 1    
    53   26   90 1    
    54   27   28 am   BACKBONE|DICT|INTERRES
    55   27   91 1    
    56   28   29 2    
    57   28   30 1    
    58   30   31 1    
    59   30   32 1    
    60   30   92 1    
    61   31   93 1    
    62   31   94 1    
    63   31   95 1    
    64   32   33 am   BACKBONE|DICT|INTERRES
    65   32   96 1    
    66   33   34 2    
    67   33   35 1    
    68   35   36 1    
    69   35   37 1    
    70   35   97 1    
    71   36   98 1    
    72   36   99 1    
    73   36  100 1    
    74   37   38 am   BACKBONE|DICT|INTERRES
    75   37  101 1    
    76   38   39 2    
    77   38   40 1    
    78   40   41 1    
    79   40   42 1    
    80   40  102 1    
    81   41  103 1    
    82   41  104 1    
    83   41  105 1    
    84   42   43 am   BACKBONE|DICT|INTERRES
    85   42  106 1    
    86   43   44 2    
    87   43   45 1    
    88   45   46 1    
    89   45   49 1    
    90   45  107 1    
    91   46   47 1    
    92   46  108 1    
    93   46  109 1    
    94   47   48 1    
    95   48  110 1    
    96   48  111 1    
    97   49   50 am   BACKBONE|DICT|INTERRES
    98   49  112 1    
    99   50   51 2    
   100   50   52 1    
   101   52   53 1    
   102   52   54 1    
   103   52  113 1    
   104   53  114 1    
   105   53  115 1    
   106   53  116 1    
   107   54   55 am   BACKBONE|DICT|INTERRES
   108   54  117 1    
   109   55   56 2    
   110   55   57 1    
   111   57   58 1    
   112   57   59 1    
   113   57  118 1    
   114   58  119 1    
   115   58  120 1    
   116   58  121 1    
   117   59   60 am   BACKBONE|DICT|INTERRES
   118   59  122 1    
   119   60   61 2    
   120   60   62 1    
   121   62   63 1    
   122   62   64 1    
   123   62  123 1    
   124   63  124 1    
   125   63  125 1    
   126   63  126 1    
   127   64   65 am   BACKBONE|DICT|INTERRES
   128   64  127 1    
   129   65   66 2    
@<TRIPOS>SUBSTRUCTURE
     1 UNK         1 GROUP             0       ****    0 ROOT    
