@<TRIPOS>MOLECULE
3R135
127   129    1
SMALL
USER_CHARGES


@<TRIPOS>ATOM
      1 CA        -75.4591   24.6642  -69.5292 C.3       0 UNK        -0.1998 
      2 C         -76.9794   24.6967  -69.5819 C.2       0 UNK         0.4909 
      3 O         -77.6345   23.9661  -68.8386 O.2       0 UNK        -0.5240 
      4 N         -77.5442   25.5427  -70.4528 N.am      1 UNK        -0.4739 
      5 CA        -78.9921   25.7400  -70.6142 C.3       1 UNK         0.0864 
      6 C6        -79.3011   27.0423  -71.3910 C.3       11 UNK        -0.0881 
      7 S7        -78.6783   28.5206  -70.5290 S.3       11 UNK        -0.2682 
      8 C8        -79.5795   29.8309  -71.4137 C.3       11 UNK         0.0289 
      9 C9        -79.0998   29.9903  -72.8500 C.ar      11 UNK        -0.0687 
     10 C10       -79.9498   29.7105  -73.9240 C.ar      11 UNK        -0.0823 
     11 C11       -79.5195   29.9095  -75.2404 C.ar      11 UNK        -0.0830 
     12 C12       -78.2252   30.3882  -75.4763 C.ar      11 UNK        -0.1021 
     13 C13       -77.3568   30.6473  -74.4124 C.ar      11 UNK        -0.0753 
     14 C14       -77.8046   30.4466  -73.1027 C.ar      11 UNK        -0.0933 
     15 C15       -75.9267   31.1010  -74.6813 C.3       11 UNK         0.0166 
     16 S16       -75.4377   32.5170  -73.6357 S.3       11 UNK        -0.2615 
     17 C17       -73.6331   32.6981  -73.8927 C.3       11 UNK        -0.0865 
     18 CA        -72.8000   31.3920  -74.0225 C.3       10 UNK         0.0862 
     19 C         -71.2822   31.7227  -74.1385 C.2       10 UNK         0.5551 
     20 N         -70.4371   31.3094  -73.2023 N.am      10 UNK        -0.7319 
     21 O         -70.8680   32.3699  -75.0970 O.2       10 UNK        -0.5018 
     22 N         -73.1554   30.4023  -72.9881 N.am      10 UNK        -0.4509 
     23 C         -72.8872   29.0923  -73.0651 C.2       10 UNK         0.4899 
     24 O         -72.1867   28.5975  -73.9498 O.2       10 UNK        -0.4839 
     25 CA        -73.4882   28.1843  -71.9674 C.3       9 UNK         0.0222 
     26 CB        -74.8483   28.6843  -71.4266 C.3       9 UNK        -0.1966 
     27 N         -73.5878   26.7825  -72.4000 N.am      9 UNK        -0.4218 
     28 C         -74.3080   26.3078  -73.4275 C.2       9 UNK         0.5020 
     29 O         -75.0855   26.9814  -74.1119 O.2       9 UNK        -0.5274 
     30 CA        -74.1246   24.8179  -73.7530 C.3       8 UNK         0.0270 
     31 CB        -75.4104   24.0277  -73.4635 C.3       8 UNK        -0.1976 
     32 N         -73.8082   24.7097  -75.1710 N.am      8 UNK        -0.4313 
     33 C         -72.5761   24.8105  -75.6882 C.2       8 UNK         0.5041 
     34 O         -71.5401   24.7187  -75.0287 O.2       8 UNK        -0.5577 
     35 CA        -72.4989   25.1567  -77.1823 C.3       7 UNK         0.0284 
     36 CB        -72.8826   23.9602  -78.0661 C.3       7 UNK        -0.1958 
     37 N         -73.3951   26.2875  -77.4300 N.am      7 UNK        -0.4454 
     38 C         -73.0109   27.5688  -77.3543 C.2       7 UNK         0.5089 
     39 O         -71.8332   27.9262  -77.4046 O.2       7 UNK        -0.5125 
     40 CA        -74.0975   28.6370  -77.1223 C.3       6 UNK         0.0408 
     41 CB        -74.0405   29.7737  -78.1635 C.3       6 UNK        -0.1791 
     42 N         -75.4571   28.1089  -76.9490 N.am      6 UNK        -0.4762 
     43 C         -76.2745   27.6109  -77.8872 C.2       6 UNK         0.5007 
     44 O         -75.9845   27.5110  -79.0808 O.2       6 UNK        -0.5032 
     45 CA        -77.6577   27.1348  -77.4011 C.3       5 UNK         0.0783 
     46 C46       -78.7692   28.0359  -77.9940 C.3       11 UNK        -0.0857 
     47 S47       -80.3154   27.9322  -77.0342 S.3       11 UNK        -0.2512 
     48 C48       -80.4683   29.6351  -76.4003 C.3       11 UNK         0.0225 
     49 N         -77.9016   25.7274  -77.7321 N.am      5 UNK        -0.4615 
     50 C         -77.1045   24.6844  -77.4744 C.2       4 UNK         0.5053 
     51 O         -76.0257   24.7751  -76.8843 O.2       4 UNK        -0.5105 
     52 CA        -77.6250   23.3086  -77.9389 C.3       4 UNK         0.0263 
     53 CB        -76.5848   22.1864  -77.7679 C.3       4 UNK        -0.1981 
     54 N         -78.8363   22.9354  -77.2094 N.am      4 UNK        -0.4224 
     55 C         -80.0682   23.4127  -77.4370 C.2       3 UNK         0.4895 
     56 O         -80.3437   24.1621  -78.3752 O.2       3 UNK        -0.5091 
     57 CA        -81.1740   23.0095  -76.4407 C.3       3 UNK         0.0250 
     58 CB        -82.0390   21.8815  -77.0263 C.3       3 UNK        -0.1996 
     59 N         -80.6714   22.5993  -75.1218 N.am      3 UNK        -0.4254 
     60 C         -80.0094   23.4018  -74.2760 C.2       2 UNK         0.5004 
     61 O         -79.7731   24.5897  -74.5092 O.2       2 UNK        -0.5226 
     62 CA        -79.4812   22.7460  -72.9862 C.3       2 UNK         0.0269 
     63 CB        -78.3702   21.7294  -73.3054 C.3       2 UNK        -0.1926 
     64 N         -78.9451   23.7570  -72.0737 N.am      2 UNK        -0.4687 
     65 C         -79.6968   24.5502  -71.2989 C.2       1 UNK         0.5165 
     66 O         -80.9073   24.3884  -71.1323 O.2       1 UNK        -0.5079 
     67 H67       -75.0120   25.4133  -70.1816 H         1 UNK         0.0900 
     68 H68       -75.0931   23.6837  -69.8325 H         1 UNK         0.0900 
     69 H69       -75.1160   24.8560  -68.5129 H         1 UNK         0.0900 
     70 H70       -76.9634   26.1457  -71.0173 H         1 UNK         0.2959 
     71 H71       -79.4304   25.8267  -69.6171 H         1 UNK         0.1079 
     72 H72       -78.8672   27.0103  -72.3932 H         1 UNK         0.0837 
     73 H73       -80.3785   27.1588  -71.5272 H         1 UNK         0.0837 
     74 H74       -80.6503   29.6250  -71.3766 H         1 UNK         0.0685 
     75 H75       -79.4320   30.7741  -70.8858 H         1 UNK         0.0685 
     76 H76       -80.9524   29.3509  -73.7365 H         1 UNK         0.1434 
     77 H77       -77.8873   30.5574  -76.4883 H         1 UNK         0.1329 
     78 H78       -77.1447   30.6485  -72.2706 H         1 UNK         0.1335 
     79 H79       -75.7936   31.3773  -75.7281 H         1 UNK         0.0680 
     80 H80       -75.2848   30.2418  -74.5003 H         1 UNK         0.0680 
     81 H81       -73.2552   33.2954  -73.0606 H         1 UNK         0.1032 
     82 H82       -73.4912   33.3150  -74.7824 H         1 UNK         0.1032 
     83 H83       -73.0604   30.9470  -74.9837 H         1 UNK         0.0461 
     84 H84       -69.4568   31.5270  -73.2874 H         1 UNK         0.3453 
     85 H85       -70.7707   30.7703  -72.4197 H         1 UNK         0.3453 
     86 H86       -73.7170   30.7465  -72.2238 H         1 UNK         0.2984 
     87 H87       -72.7771   28.1965  -71.1404 H         1 UNK         0.0554 
     88 H88       -75.2525   28.0004  -70.6807 H         1 UNK         0.0847 
     89 H89       -75.5888   28.7781  -72.2211 H         1 UNK         0.0847 
     90 H90       -74.7603   29.6564  -70.9412 H         1 UNK         0.0847 
     91 H91       -72.9446   26.1491  -71.9458 H         1 UNK         0.3141 
     92 H92       -73.3120   24.3978  -73.1565 H         1 UNK         0.0743 
     93 H93       -76.2636   24.4256  -74.0159 H         1 UNK         0.0784 
     94 H94       -75.2929   22.9793  -73.7376 H         1 UNK         0.0784 
     95 H95       -75.6581   24.0597  -72.4036 H         1 UNK         0.0784 
     96 H96       -74.6086   24.7935  -75.7973 H         1 UNK         0.3213 
     97 H97       -71.4685   25.4316  -77.4186 H         1 UNK         0.0855 
     98 H98       -73.8782   23.5872  -77.8359 H         1 UNK         0.0814 
     99 H99       -72.1859   23.1338  -77.9211 H         1 UNK         0.0814 
    100 H100      -72.8592   24.2247  -79.1232 H         1 UNK         0.0814 
    101 H101      -74.3881   26.0912  -77.3879 H         1 UNK         0.3105 
    102 H102      -73.8533   29.0783  -76.1568 H         1 UNK         0.0547 
    103 H103      -73.0715   30.2737  -78.1373 H         1 UNK         0.0837 
    104 H104      -74.1820   29.4049  -79.1794 H         1 UNK         0.0837 
    105 H105      -74.7994   30.5313  -77.9702 H         1 UNK         0.0837 
    106 H106      -75.7443   28.0322  -75.9781 H         1 UNK         0.3020 
    107 H107      -77.6810   27.2146  -76.3113 H         1 UNK         0.1245 
    108 H108      -78.4551   29.0781  -78.0506 H         1 UNK         0.0781 
    109 H109      -78.9826   27.7505  -79.0260 H         1 UNK         0.0781 
    110 H110      -80.3015   30.3500  -77.2076 H         1 UNK         0.0836 
    111 H111      -81.4985   29.7912  -76.0766 H         1 UNK         0.0836 
    112 H112      -78.7936   25.5277  -78.1708 H         1 UNK         0.3022 
    113 H113      -77.8623   23.3848  -79.0023 H         1 UNK         0.0747 
    114 H114      -76.9930   21.2187  -78.0601 H         1 UNK         0.0793 
    115 H115      -75.7161   22.3662  -78.4003 H         1 UNK         0.0793 
    116 H116      -76.2353   22.1053  -76.7375 H         1 UNK         0.0793 
    117 H117      -78.7063   22.3447  -76.4024 H         1 UNK         0.3047 
    118 H118      -81.8075   23.8874  -76.2949 H         1 UNK         0.0822 
    119 H119      -82.8820   21.6478  -76.3757 H         1 UNK         0.0807 
    120 H120      -81.4640   20.9667  -77.1756 H         1 UNK         0.0807 
    121 H121      -82.4510   22.1687  -77.9950 H         1 UNK         0.0807 
    122 H122      -80.8278   21.6360  -74.8604 H         1 UNK         0.2946 
    123 H123      -80.3092   22.2276  -72.4967 H         1 UNK         0.1144 
    124 H124      -78.7625   20.8770  -73.8611 H         1 UNK         0.0793 
    125 H125      -77.9187   21.3342  -72.3950 H         1 UNK         0.0793 
    126 H126      -77.5775   22.1710  -73.9089 H         1 UNK         0.0793 
    127 H127      -77.9688   23.9881  -72.1730 H         1 UNK         0.2896 
@<TRIPOS>BOND
     1    1    2 1    
     2    1   67 1    
     3    1   68 1    
     4    1   69 1    
     5    2    3 2    
     6    2    4 am   BACKBONE|DICT|INTERRES
     7    4    5 1    
     8    4   70 1    
     9    5    6 1    
    10    5   65 1    
    11    5   71 1    
    12    6    7 1    
    13    6   72 1    
    14    6   73 1    
    15    7    8 1    
    16    8    9 1    
    17    8   74 1    
    18    8   75 1    
    19    9   10 ar   
    20    9   14 ar   
    21   10   11 ar   
    22   10   76 1    
    23   11   12 ar   
    24   11   48 1    
    25   12   13 ar   
    26   12   77 1    
    27   13   14 ar   
    28   13   15 1    
    29   14   78 1    
    30   15   16 1    
    31   15   79 1    
    32   15   80 1    
    33   16   17 1    
    34   17   18 1    
    35   17   81 1    
    36   17   82 1    
    37   18   19 1    
    38   18   22 1    
    39   18   83 1    
    40   19   20 am   BACKBONE|DICT|INTERRES
    41   19   21 2    
    42   20   84 1    
    43   20   85 1    
    44   22   23 am   BACKBONE|DICT|INTERRES
    45   22   86 1    
    46   23   24 2    
    47   23   25 1    
    48   25   26 1    
    49   25   27 1    
    50   25   87 1    
    51   26   88 1    
    52   26   89 1    
    53   26   90 1    
    54   27   28 am   BACKBONE|DICT|INTERRES
    55   27   91 1    
    56   28   29 2    
    57   28   30 1    
    58   30   31 1    
    59   30   32 1    
    60   30   92 1    
    61   31   93 1    
    62   31   94 1    
    63   31   95 1    
    64   32   33 am   BACKBONE|DICT|INTERRES
    65   32   96 1    
    66   33   34 2    
    67   33   35 1    
    68   35   36 1    
    69   35   37 1    
    70   35   97 1    
    71   36   98 1    
    72   36   99 1    
    73   36  100 1    
    74   37   38 am   BACKBONE|DICT|INTERRES
    75   37  101 1    
    76   38   39 2    
    77   38   40 1    
    78   40   41 1    
    79   40   42 1    
    80   40  102 1    
    81   41  103 1    
    82   41  104 1    
    83   41  105 1    
    84   42   43 am   BACKBONE|DICT|INTERRES
    85   42  106 1    
    86   43   44 2    
    87   43   45 1    
    88   45   46 1    
    89   45   49 1    
    90   45  107 1    
    91   46   47 1    
    92   46  108 1    
    93   46  109 1    
    94   47   48 1    
    95   48  110 1    
    96   48  111 1    
    97   49   50 am   BACKBONE|DICT|INTERRES
    98   49  112 1    
    99   50   51 2    
   100   50   52 1    
   101   52   53 1    
   102   52   54 1    
   103   52  113 1    
   104   53  114 1    
   105   53  115 1    
   106   53  116 1    
   107   54   55 am   BACKBONE|DICT|INTERRES
   108   54  117 1    
   109   55   56 2    
   110   55   57 1    
   111   57   58 1    
   112   57   59 1    
   113   57  118 1    
   114   58  119 1    
   115   58  120 1    
   116   58  121 1    
   117   59   60 am   BACKBONE|DICT|INTERRES
   118   59  122 1    
   119   60   61 2    
   120   60   62 1    
   121   62   63 1    
   122   62   64 1    
   123   62  123 1    
   124   63  124 1    
   125   63  125 1    
   126   63  126 1    
   127   64   65 am   BACKBONE|DICT|INTERRES
   128   64  127 1    
   129   65   66 2    
@<TRIPOS>SUBSTRUCTURE
     1 UNK         1 GROUP             0       ****    0 ROOT    
