@<TRIPOS>MOLECULE
3R135
127   129    1
SMALL
USER_CHARGES


@<TRIPOS>ATOM
      1 CA        -82.1444   31.7347  -77.6637 C.3       0 UNK        -0.1998 
      2 C         -81.9129   30.5713  -76.7115 C.2       0 UNK         0.4909 
      3 O         -82.8784   29.9601  -76.2517 O.2       0 UNK        -0.5240 
      4 N         -80.6409   30.2616  -76.4197 N.am      1 UNK        -0.4739 
      5 CA        -80.1538   29.1808  -75.5500 C.3       1 UNK         0.0864 
      6 C6        -80.6930   29.2716  -74.0939 C.3       11 UNK        -0.0881 
      7 S7        -79.8558   28.1334  -72.9419 S.3       11 UNK        -0.2682 
      8 C8        -78.6340   29.2313  -72.1460 C.3       11 UNK         0.0289 
      9 C9        -77.5200   28.5146  -71.3756 C.ar      11 UNK        -0.0687 
     10 C10       -77.2719   27.1387  -71.4886 C.ar      11 UNK        -0.0823 
     11 C11       -76.2569   26.5262  -70.7483 C.ar      11 UNK        -0.0830 
     12 C12       -75.4507   27.3084  -69.9158 C.ar      11 UNK        -0.1021 
     13 C13       -75.6702   28.6849  -69.8041 C.ar      11 UNK        -0.0753 
     14 C14       -76.7128   29.2743  -70.5252 C.ar      11 UNK        -0.0933 
     15 C15       -74.8087   29.5261  -68.8721 C.3       11 UNK         0.0166 
     16 S16       -73.3324   30.1941  -69.7056 S.3       11 UNK        -0.2615 
     17 C17       -74.0269   31.5753  -70.6883 C.3       11 UNK        -0.0865 
     18 CA        -73.8134   31.4325  -72.2201 C.3       10 UNK         0.0862 
     19 C         -72.3589   31.8087  -72.6351 C.2       10 UNK         0.5551 
     20 N         -71.5496   30.8966  -73.1599 N.am      10 UNK        -0.7319 
     21 O         -71.9625   32.9623  -72.4864 O.2       10 UNK        -0.5018 
     22 N         -74.2879   30.1327  -72.7170 N.am      10 UNK        -0.4509 
     23 C         -74.5673   29.8513  -73.9939 C.2       10 UNK         0.4899 
     24 O         -74.5923   30.6857  -74.9004 O.2       10 UNK        -0.4839 
     25 CA        -74.8281   28.3703  -74.3146 C.3       9 UNK         0.0222 
     26 CB        -76.2011   28.1689  -74.9751 C.3       9 UNK        -0.1966 
     27 N         -73.7842   27.8171  -75.1830 N.am      9 UNK        -0.4218 
     28 C         -72.4822   27.7361  -74.8605 C.2       9 UNK         0.5020 
     29 O         -72.0343   28.1063  -73.7739 O.2       9 UNK        -0.5274 
     30 CA        -71.5044   27.1291  -75.8839 C.3       8 UNK         0.0270 
     31 CB        -70.7092   25.9679  -75.2598 C.3       8 UNK        -0.1976 
     32 N         -72.1702   26.6517  -77.0976 N.am      8 UNK        -0.4313 
     33 C         -72.3203   27.3714  -78.2186 C.2       8 UNK         0.5041 
     34 O         -71.8832   28.5145  -78.3566 O.2       8 UNK        -0.5577 
     35 CA        -73.0869   26.7246  -79.3900 C.3       7 UNK         0.0284 
     36 CB        -72.1042   26.2169  -80.4580 C.3       7 UNK        -0.1958 
     37 N         -73.9770   25.6271  -78.9991 N.am      7 UNK        -0.4454 
     38 C         -75.0543   25.7550  -78.2131 C.2       7 UNK         0.5089 
     39 O         -75.4166   26.8299  -77.7368 O.2       7 UNK        -0.5125 
     40 CA        -75.8321   24.4720  -77.8543 C.3       6 UNK         0.0408 
     41 CB        -75.4314   23.2345  -78.6879 C.3       6 UNK        -0.1791 
     42 N         -75.7515   24.1532  -76.4241 N.am      6 UNK        -0.4762 
     43 C         -74.6384   24.0453  -75.6779 C.2       6 UNK         0.5007 
     44 O         -73.5038   24.2370  -76.1183 O.2       6 UNK        -0.5032 
     45 CA        -74.8012   23.6486  -74.1933 C.3       5 UNK         0.0783 
     46 C46       -74.7262   24.9024  -73.2905 C.3       11 UNK        -0.0857 
     47 S47       -74.4985   24.4937  -71.5310 S.3       11 UNK        -0.2512 
     48 C48       -76.0816   25.0116  -70.7968 C.3       11 UNK         0.0225 
     49 N         -76.0167   22.8618  -73.9520 N.am      5 UNK        -0.4615 
     50 C         -76.2113   21.6147  -74.4018 C.2       4 UNK         0.5053 
     51 O         -75.3432   20.9576  -74.9770 O.2       4 UNK        -0.5105 
     52 CA        -77.6031   20.9847  -74.1941 C.3       4 UNK         0.0263 
     53 CB        -77.5624   19.9873  -73.0244 C.3       4 UNK        -0.1981 
     54 N         -78.7143   21.9231  -73.9793 N.am      4 UNK        -0.4224 
     55 C         -79.0918   22.9127  -74.8014 C.2       3 UNK         0.4895 
     56 O         -78.4737   23.2385  -75.8182 O.2       3 UNK        -0.5091 
     57 CA        -80.3610   23.6759  -74.3990 C.3       3 UNK         0.0250 
     58 CB        -80.1725   24.4185  -73.0641 C.3       3 UNK        -0.1996 
     59 N         -80.6951   24.6409  -75.4427 N.am      3 UNK        -0.4254 
     60 C         -81.9234   25.0297  -75.7955 C.2       2 UNK         0.5004 
     61 O         -82.9532   24.6228  -75.2531 O.2       2 UNK        -0.5226 
     62 CA        -82.0038   26.0772  -76.9236 C.3       2 UNK         0.0269 
     63 CB        -83.4148   26.1854  -77.5309 C.3       2 UNK        -0.1926 
     64 N         -81.5995   27.3975  -76.4383 N.am      2 UNK        -0.4687 
     65 C         -80.3439   27.7851  -76.1840 C.2       1 UNK         0.5165 
     66 O         -79.3577   27.0913  -76.4373 O.2       1 UNK        -0.5079 
     67 H67       -82.7408   32.5050  -77.1754 H         1 UNK         0.0900 
     68 H68       -82.6846   31.3942  -78.5466 H         1 UNK         0.0900 
     69 H69       -81.2089   32.1875  -77.9917 H         1 UNK         0.0900 
     70 H70       -79.9081   30.7988  -76.8633 H         1 UNK         0.2959 
     71 H71       -79.0751   29.3362  -75.4966 H         1 UNK         0.1079 
     72 H72       -81.7610   29.0520  -74.0585 H         1 UNK         0.0837 
     73 H73       -80.5895   30.2916  -73.7207 H         1 UNK         0.0837 
     74 H74       -78.1782   29.8735  -72.9003 H         1 UNK         0.0685 
     75 H75       -79.1721   29.8927  -71.4651 H         1 UNK         0.0685 
     76 H76       -77.8794   26.5270  -72.1358 H         1 UNK         0.1434 
     77 H77       -74.6625   26.8404  -69.3415 H         1 UNK         0.1329 
     78 H78       -76.9038   30.3331  -70.4237 H         1 UNK         0.1335 
     79 H79       -75.3919   30.3424  -68.4429 H         1 UNK         0.0680 
     80 H80       -74.4824   28.9166  -68.0280 H         1 UNK         0.0680 
     81 H81       -73.5933   32.5083  -70.3226 H         1 UNK         0.1032 
     82 H82       -75.0917   31.6724  -70.4829 H         1 UNK         0.1032 
     83 H83       -74.4433   32.1901  -72.6905 H         1 UNK         0.0461 
     84 H84       -71.8519   29.9336  -73.2791 H         1 UNK         0.3453 
     85 H85       -70.6147   31.1629  -73.4227 H         1 UNK         0.3453 
     86 H86       -74.2644   29.3817  -72.0408 H         1 UNK         0.2984 
     87 H87       -74.8189   27.8078  -73.3793 H         1 UNK         0.0554 
     88 H88       -76.4021   27.1165  -75.1758 H         1 UNK         0.0847 
     89 H89       -77.0004   28.5266  -74.3315 H         1 UNK         0.0847 
     90 H90       -76.2791   28.7077  -75.9202 H         1 UNK         0.0847 
     91 H91       -74.0783   27.5239  -76.1071 H         1 UNK         0.3141 
     92 H92       -70.7911   27.9142  -76.1432 H         1 UNK         0.0743 
     93 H93       -70.1145   26.3123  -74.4127 H         1 UNK         0.0784 
     94 H94       -71.3638   25.1769  -74.8933 H         1 UNK         0.0784 
     95 H95       -70.0187   25.5269  -75.9789 H         1 UNK         0.0784 
     96 H96       -72.5930   25.7283  -77.0374 H         1 UNK         0.3213 
     97 H97       -73.7046   27.5061  -79.8380 H         1 UNK         0.0855 
     98 H98       -71.4466   27.0191  -80.7962 H         1 UNK         0.0814 
     99 H99       -72.6295   25.8411  -81.3363 H         1 UNK         0.0814 
    100 H100      -71.4699   25.4163  -80.0752 H         1 UNK         0.0814 
    101 H101      -73.7297   24.7033  -79.3231 H         1 UNK         0.3105 
    102 H102      -76.8818   24.6851  -78.0620 H         1 UNK         0.0547 
    103 H103      -75.5296   23.4263  -79.7573 H         1 UNK         0.0837 
    104 H104      -74.4061   22.9175  -78.4935 H         1 UNK         0.0837 
    105 H105      -76.0804   22.3892  -78.4582 H         1 UNK         0.0837 
    106 H106      -76.6466   23.9504  -75.9875 H         1 UNK         0.3020 
    107 H107      -73.9447   23.0122  -73.9575 H         1 UNK         0.1245 
    108 H108      -73.8683   25.5160  -73.5663 H         1 UNK         0.0781 
    109 H109      -75.6097   25.5279  -73.4230 H         1 UNK         0.0781 
    110 H110      -76.1322   24.6236  -69.7785 H         1 UNK         0.0836 
    111 H111      -76.9015   24.5371  -71.3379 H         1 UNK         0.0836 
    112 H112      -76.7744   23.3256  -73.4764 H         1 UNK         0.3022 
    113 H113      -77.8313   20.4289  -75.1059 H         1 UNK         0.0747 
    114 H114      -78.4988   19.4358  -72.9376 H         1 UNK         0.0793 
    115 H115      -76.7696   19.2507  -73.1642 H         1 UNK         0.0793 
    116 H116      -77.3763   20.4888  -72.0737 H         1 UNK         0.0793 
    117 H117      -79.2819   21.7463  -73.1627 H         1 UNK         0.3047 
    118 H118      -81.1697   22.9481  -74.3032 H         1 UNK         0.0822 
    119 H119      -81.0617   24.9914  -72.7998 H         1 UNK         0.0807 
    120 H120      -79.3360   25.1135  -73.1181 H         1 UNK         0.0807 
    121 H121      -79.9788   23.7304  -72.2408 H         1 UNK         0.0807 
    122 H122      -79.8983   25.0264  -75.9399 H         1 UNK         0.2946 
    123 H123      -81.3201   25.7651  -77.7168 H         1 UNK         0.1144 
    124 H124      -83.4317   26.8802  -78.3709 H         1 UNK         0.0793 
    125 H125      -84.1461   26.5296  -76.7983 H         1 UNK         0.0793 
    126 H126      -83.7547   25.2182  -77.9036 H         1 UNK         0.0793 
    127 H127      -82.3385   28.0640  -76.2344 H         1 UNK         0.2896 
@<TRIPOS>BOND
     1    1    2 1    
     2    1   67 1    
     3    1   68 1    
     4    1   69 1    
     5    2    3 2    
     6    2    4 am   BACKBONE|DICT|INTERRES
     7    4    5 1    
     8    4   70 1    
     9    5    6 1    
    10    5   65 1    
    11    5   71 1    
    12    6    7 1    
    13    6   72 1    
    14    6   73 1    
    15    7    8 1    
    16    8    9 1    
    17    8   74 1    
    18    8   75 1    
    19    9   10 ar   
    20    9   14 ar   
    21   10   11 ar   
    22   10   76 1    
    23   11   12 ar   
    24   11   48 1    
    25   12   13 ar   
    26   12   77 1    
    27   13   14 ar   
    28   13   15 1    
    29   14   78 1    
    30   15   16 1    
    31   15   79 1    
    32   15   80 1    
    33   16   17 1    
    34   17   18 1    
    35   17   81 1    
    36   17   82 1    
    37   18   19 1    
    38   18   22 1    
    39   18   83 1    
    40   19   20 am   BACKBONE|DICT|INTERRES
    41   19   21 2    
    42   20   84 1    
    43   20   85 1    
    44   22   23 am   BACKBONE|DICT|INTERRES
    45   22   86 1    
    46   23   24 2    
    47   23   25 1    
    48   25   26 1    
    49   25   27 1    
    50   25   87 1    
    51   26   88 1    
    52   26   89 1    
    53   26   90 1    
    54   27   28 am   BACKBONE|DICT|INTERRES
    55   27   91 1    
    56   28   29 2    
    57   28   30 1    
    58   30   31 1    
    59   30   32 1    
    60   30   92 1    
    61   31   93 1    
    62   31   94 1    
    63   31   95 1    
    64   32   33 am   BACKBONE|DICT|INTERRES
    65   32   96 1    
    66   33   34 2    
    67   33   35 1    
    68   35   36 1    
    69   35   37 1    
    70   35   97 1    
    71   36   98 1    
    72   36   99 1    
    73   36  100 1    
    74   37   38 am   BACKBONE|DICT|INTERRES
    75   37  101 1    
    76   38   39 2    
    77   38   40 1    
    78   40   41 1    
    79   40   42 1    
    80   40  102 1    
    81   41  103 1    
    82   41  104 1    
    83   41  105 1    
    84   42   43 am   BACKBONE|DICT|INTERRES
    85   42  106 1    
    86   43   44 2    
    87   43   45 1    
    88   45   46 1    
    89   45   49 1    
    90   45  107 1    
    91   46   47 1    
    92   46  108 1    
    93   46  109 1    
    94   47   48 1    
    95   48  110 1    
    96   48  111 1    
    97   49   50 am   BACKBONE|DICT|INTERRES
    98   49  112 1    
    99   50   51 2    
   100   50   52 1    
   101   52   53 1    
   102   52   54 1    
   103   52  113 1    
   104   53  114 1    
   105   53  115 1    
   106   53  116 1    
   107   54   55 am   BACKBONE|DICT|INTERRES
   108   54  117 1    
   109   55   56 2    
   110   55   57 1    
   111   57   58 1    
   112   57   59 1    
   113   57  118 1    
   114   58  119 1    
   115   58  120 1    
   116   58  121 1    
   117   59   60 am   BACKBONE|DICT|INTERRES
   118   59  122 1    
   119   60   61 2    
   120   60   62 1    
   121   62   63 1    
   122   62   64 1    
   123   62  123 1    
   124   63  124 1    
   125   63  125 1    
   126   63  126 1    
   127   64   65 am   BACKBONE|DICT|INTERRES
   128   64  127 1    
   129   65   66 2    
@<TRIPOS>SUBSTRUCTURE
     1 UNK         1 GROUP             0       ****    0 ROOT    
