@<TRIPOS>MOLECULE
3R135
127   129    1
SMALL
USER_CHARGES


@<TRIPOS>ATOM
      1 CA        -83.3618   23.8211  -71.7769 C.3       0 UNK        -0.1998 
      2 C         -82.9068   24.9171  -72.7282 C.2       0 UNK         0.4909 
      3 O         -82.8115   24.6895  -73.9363 O.2       0 UNK        -0.5240 
      4 N         -82.6354   26.1108  -72.1860 N.am      1 UNK        -0.4739 
      5 CA        -82.2065   27.3012  -72.9272 C.3       1 UNK         0.0864 
      6 C6        -82.2205   28.5847  -72.0542 C.3       11 UNK        -0.0881 
      7 S7        -81.3958   28.4278  -70.4316 S.3       11 UNK        -0.2682 
      8 C8        -80.1351   29.7424  -70.5080 C.3       11 UNK         0.0289 
      9 C9        -78.9040   29.3200  -71.2967 C.ar      11 UNK        -0.0687 
     10 C10       -78.1254   28.2510  -70.8446 C.ar      11 UNK        -0.0823 
     11 C11       -76.9807   27.8593  -71.5414 C.ar      11 UNK        -0.0830 
     12 C12       -76.6087   28.5514  -72.6967 C.ar      11 UNK        -0.1021 
     13 C13       -77.3653   29.6370  -73.1490 C.ar      11 UNK        -0.0753 
     14 C14       -78.5186   30.0114  -72.4505 C.ar      11 UNK        -0.0933 
     15 C15       -76.9414   30.3965  -74.3984 C.3       11 UNK         0.0166 
     16 S16       -75.9640   31.8869  -74.0168 S.3       11 UNK        -0.2615 
     17 C17       -74.3903   31.1714  -73.4335 C.3       11 UNK        -0.0865 
     18 CA        -73.4395   30.7625  -74.6009 C.3       10 UNK         0.0862 
     19 C         -72.4830   31.8934  -75.0840 C.2       10 UNK         0.5551 
     20 N         -71.5753   31.5997  -76.0059 N.am      10 UNK        -0.7319 
     21 O         -72.5529   33.0355  -74.6356 O.2       10 UNK        -0.5018 
     22 N         -72.7408   29.4943  -74.3412 N.am      10 UNK        -0.4509 
     23 C         -71.9160   29.2510  -73.3126 C.2       10 UNK         0.4899 
     24 O         -71.6816   30.0509  -72.4066 O.2       10 UNK        -0.4839 
     25 CA        -71.2353   27.8736  -73.2906 C.3       9 UNK         0.0222 
     26 CB        -72.1662   26.8189  -72.6688 C.3       9 UNK        -0.1966 
     27 N         -70.8259   27.4552  -74.6336 N.am      9 UNK        -0.4218 
     28 C         -69.7292   27.9193  -75.2548 C.2       9 UNK         0.5020 
     29 O         -68.9103   28.6690  -74.7210 O.2       9 UNK        -0.5274 
     30 CA        -69.4875   27.4863  -76.7142 C.3       8 UNK         0.0270 
     31 CB        -68.4995   26.3092  -76.7668 C.3       8 UNK        -0.1976 
     32 N         -70.7053   27.1211  -77.4402 N.am      8 UNK        -0.4313 
     33 C         -71.7154   27.9531  -77.7287 C.2       8 UNK         0.5041 
     34 O         -71.7140   29.1534  -77.4559 O.2       8 UNK        -0.5577 
     35 CA        -72.9628   27.3268  -78.3793 C.3       7 UNK         0.0284 
     36 CB        -72.8858   27.4435  -79.9098 C.3       7 UNK        -0.1958 
     37 N         -73.1911   25.9239  -78.0037 N.am      7 UNK        -0.4454 
     38 C         -73.3770   25.4924  -76.7490 C.2       7 UNK         0.5089 
     39 O         -73.3335   26.2286  -75.7594 O.2       7 UNK        -0.5125 
     40 CA        -73.5660   23.9793  -76.5588 C.3       6 UNK         0.0408 
     41 CB        -72.2086   23.3062  -76.2988 C.3       6 UNK        -0.1791 
     42 N         -74.4510   23.7245  -75.4228 N.am      6 UNK        -0.4762 
     43 C         -75.7835   23.8492  -75.4689 C.2       6 UNK         0.5007 
     44 O         -76.4155   24.0139  -76.5142 O.2       6 UNK        -0.5032 
     45 CA        -76.5060   23.8375  -74.1077 C.3       5 UNK         0.0783 
     46 C46       -76.3228   25.1967  -73.3950 C.3       11 UNK        -0.0857 
     47 S47       -76.7977   25.1043  -71.6400 S.3       11 UNK        -0.2512 
     48 C48       -76.1479   26.6917  -71.0365 C.3       11 UNK         0.0225 
     49 N         -77.9254   23.5093  -74.2562 N.am      5 UNK        -0.4615 
     50 C         -78.4024   22.2765  -74.4577 C.2       4 UNK         0.5053 
     51 O         -77.6986   21.2667  -74.5042 O.2       4 UNK        -0.5105 
     52 CA        -79.9252   22.1443  -74.6155 C.3       4 UNK         0.0263 
     53 CB        -80.5986   22.0692  -73.2378 C.3       4 UNK        -0.1981 
     54 N         -80.5120   23.2386  -75.3951 N.am      4 UNK        -0.4224 
     55 C         -80.3928   23.3492  -76.7269 C.2       3 UNK         0.4895 
     56 O         -79.8128   22.5248  -77.4347 O.2       3 UNK        -0.5091 
     57 CA        -81.0406   24.5748  -77.3893 C.3       3 UNK         0.0250 
     58 CB        -82.5480   24.3518  -77.5946 C.3       3 UNK        -0.1996 
     59 N         -80.8255   25.8029  -76.6241 N.am      3 UNK        -0.4254 
     60 C         -79.6754   26.4941  -76.5993 C.2       2 UNK         0.5004 
     61 O         -78.6842   26.1892  -77.2597 O.2       2 UNK        -0.5226 
     62 CA        -79.6228   27.7654  -75.7290 C.3       2 UNK         0.0269 
     63 CB        -79.6347   29.0149  -76.6263 C.3       2 UNK        -0.1926 
     64 N         -80.7306   27.8688  -74.7772 N.am      2 UNK        -0.4687 
     65 C         -80.8768   27.1039  -73.6876 C.2       1 UNK         0.5165 
     66 O         -80.0528   26.2580  -73.3294 O.2       1 UNK        -0.5079 
     67 H67       -82.5033   23.3498  -71.3001 H         1 UNK         0.0900 
     68 H68       -83.9194   23.0548  -72.3150 H         1 UNK         0.0900 
     69 H69       -84.0096   24.2225  -70.9978 H         1 UNK         0.0900 
     70 H70       -82.6804   26.2270  -71.1834 H         1 UNK         0.2959 
     71 H71       -82.9670   27.4435  -73.6988 H         1 UNK         0.1079 
     72 H72       -81.8075   29.4334  -72.6027 H         1 UNK         0.0837 
     73 H73       -83.2571   28.8586  -71.8516 H         1 UNK         0.0837 
     74 H74       -80.5761   30.6530  -70.9164 H         1 UNK         0.0685 
     75 H75       -79.8273   29.9856  -69.4901 H         1 UNK         0.0685 
     76 H76       -78.4191   27.7160  -69.9517 H         1 UNK         0.1434 
     77 H77       -75.7241   28.2490  -73.2406 H         1 UNK         0.1329 
     78 H78       -79.1069   30.8486  -72.8004 H         1 UNK         0.1335 
     79 H79       -77.8264   30.7100  -74.9505 H         1 UNK         0.0680 
     80 H80       -76.3788   29.7467  -75.0705 H         1 UNK         0.0680 
     81 H81       -74.6168   30.3172  -72.7987 H         1 UNK         0.1032 
     82 H82       -73.9073   31.8817  -72.7603 H         1 UNK         0.1032 
     83 H83       -74.0605   30.5420  -75.4697 H         1 UNK         0.0461 
     84 H84       -70.9472   32.3179  -76.3280 H         1 UNK         0.3453 
     85 H85       -71.5576   30.6783  -76.4403 H         1 UNK         0.3453 
     86 H86       -72.8414   28.7846  -75.0531 H         1 UNK         0.2984 
     87 H87       -70.3464   27.9447  -72.6598 H         1 UNK         0.0554 
     88 H88       -71.7012   25.8331  -72.6579 H         1 UNK         0.0847 
     89 H89       -73.1104   26.7393  -73.2073 H         1 UNK         0.0847 
     90 H90       -72.4053   27.0759  -71.6361 H         1 UNK         0.0847 
     91 H91       -71.4788   26.8713  -75.1453 H         1 UNK         0.3141 
     92 H92       -69.0373   28.3354  -77.2329 H         1 UNK         0.0743 
     93 H93       -67.5669   26.5598  -76.2591 H         1 UNK         0.0784 
     94 H94       -68.9044   25.4193  -76.2828 H         1 UNK         0.0784 
     95 H95       -68.2453   26.0484  -77.7944 H         1 UNK         0.0784 
     96 H96       -70.7987   26.1541  -77.7137 H         1 UNK         0.3213 
     97 H97       -73.8259   27.9012  -78.0356 H         1 UNK         0.0855 
     98 H98       -72.7377   28.4807  -80.2142 H         1 UNK         0.0814 
     99 H99       -73.8060   27.0990  -80.3819 H         1 UNK         0.0814 
    100 H100      -72.0583   26.8628  -80.3196 H         1 UNK         0.0814 
    101 H101      -73.2323   25.2532  -78.7584 H         1 UNK         0.3105 
    102 H102      -74.0043   23.5514  -77.4631 H         1 UNK         0.0547 
    103 H103      -71.5334   23.4446  -77.1441 H         1 UNK         0.0837 
    104 H104      -71.7141   23.7154  -75.4166 H         1 UNK         0.0837 
    105 H105      -72.3210   22.2319  -76.1512 H         1 UNK         0.0837 
    106 H106      -74.0002   23.6335  -74.5236 H         1 UNK         0.3020 
    107 H107      -76.0388   23.0580  -73.5008 H         1 UNK         0.1245 
    108 H108      -76.9159   25.9703  -73.8870 H         1 UNK         0.0781 
    109 H109      -75.2838   25.5288  -73.4401 H         1 UNK         0.0781 
    110 H110      -75.1041   26.8044  -71.3331 H         1 UNK         0.0836 
    111 H111      -76.1518   26.6814  -69.9455 H         1 UNK         0.0836 
    112 H112      -78.5710   24.2860  -74.2263 H         1 UNK         0.3022 
    113 H113      -80.1245   21.2057  -75.1376 H         1 UNK         0.0747 
    114 H114      -81.6717   21.9035  -73.3327 H         1 UNK         0.0793 
    115 H115      -80.1944   21.2442  -72.6496 H         1 UNK         0.0793 
    116 H116      -80.4430   22.9849  -72.6658 H         1 UNK         0.0793 
    117 H117      -81.0581   23.9286  -74.8899 H         1 UNK         0.3047 
    118 H118      -80.5831   24.6990  -78.3735 H         1 UNK         0.0822 
    119 H119      -83.0022   25.1839  -78.1329 H         1 UNK         0.0807 
    120 H120      -83.0754   24.2373  -76.6468 H         1 UNK         0.0807 
    121 H121      -82.7316   23.4498  -78.1800 H         1 UNK         0.0807 
    122 H122      -81.5908   26.1209  -76.0477 H         1 UNK         0.2946 
    123 H123      -78.6875   27.7424  -75.1642 H         1 UNK         0.1144 
    124 H124      -79.6735   29.9323  -76.0406 H         1 UNK         0.0793 
    125 H125      -80.4931   29.0186  -77.2996 H         1 UNK         0.0793 
    126 H126      -78.7367   29.0584  -77.2440 H         1 UNK         0.0793 
    127 H127      -81.4510   28.5391  -75.0058 H         1 UNK         0.2896 
@<TRIPOS>BOND
     1    1    2 1    
     2    1   67 1    
     3    1   68 1    
     4    1   69 1    
     5    2    3 2    
     6    2    4 am   BACKBONE|DICT|INTERRES
     7    4    5 1    
     8    4   70 1    
     9    5    6 1    
    10    5   65 1    
    11    5   71 1    
    12    6    7 1    
    13    6   72 1    
    14    6   73 1    
    15    7    8 1    
    16    8    9 1    
    17    8   74 1    
    18    8   75 1    
    19    9   10 ar   
    20    9   14 ar   
    21   10   11 ar   
    22   10   76 1    
    23   11   12 ar   
    24   11   48 1    
    25   12   13 ar   
    26   12   77 1    
    27   13   14 ar   
    28   13   15 1    
    29   14   78 1    
    30   15   16 1    
    31   15   79 1    
    32   15   80 1    
    33   16   17 1    
    34   17   18 1    
    35   17   81 1    
    36   17   82 1    
    37   18   19 1    
    38   18   22 1    
    39   18   83 1    
    40   19   20 am   BACKBONE|DICT|INTERRES
    41   19   21 2    
    42   20   84 1    
    43   20   85 1    
    44   22   23 am   BACKBONE|DICT|INTERRES
    45   22   86 1    
    46   23   24 2    
    47   23   25 1    
    48   25   26 1    
    49   25   27 1    
    50   25   87 1    
    51   26   88 1    
    52   26   89 1    
    53   26   90 1    
    54   27   28 am   BACKBONE|DICT|INTERRES
    55   27   91 1    
    56   28   29 2    
    57   28   30 1    
    58   30   31 1    
    59   30   32 1    
    60   30   92 1    
    61   31   93 1    
    62   31   94 1    
    63   31   95 1    
    64   32   33 am   BACKBONE|DICT|INTERRES
    65   32   96 1    
    66   33   34 2    
    67   33   35 1    
    68   35   36 1    
    69   35   37 1    
    70   35   97 1    
    71   36   98 1    
    72   36   99 1    
    73   36  100 1    
    74   37   38 am   BACKBONE|DICT|INTERRES
    75   37  101 1    
    76   38   39 2    
    77   38   40 1    
    78   40   41 1    
    79   40   42 1    
    80   40  102 1    
    81   41  103 1    
    82   41  104 1    
    83   41  105 1    
    84   42   43 am   BACKBONE|DICT|INTERRES
    85   42  106 1    
    86   43   44 2    
    87   43   45 1    
    88   45   46 1    
    89   45   49 1    
    90   45  107 1    
    91   46   47 1    
    92   46  108 1    
    93   46  109 1    
    94   47   48 1    
    95   48  110 1    
    96   48  111 1    
    97   49   50 am   BACKBONE|DICT|INTERRES
    98   49  112 1    
    99   50   51 2    
   100   50   52 1    
   101   52   53 1    
   102   52   54 1    
   103   52  113 1    
   104   53  114 1    
   105   53  115 1    
   106   53  116 1    
   107   54   55 am   BACKBONE|DICT|INTERRES
   108   54  117 1    
   109   55   56 2    
   110   55   57 1    
   111   57   58 1    
   112   57   59 1    
   113   57  118 1    
   114   58  119 1    
   115   58  120 1    
   116   58  121 1    
   117   59   60 am   BACKBONE|DICT|INTERRES
   118   59  122 1    
   119   60   61 2    
   120   60   62 1    
   121   62   63 1    
   122   62   64 1    
   123   62  123 1    
   124   63  124 1    
   125   63  125 1    
   126   63  126 1    
   127   64   65 am   BACKBONE|DICT|INTERRES
   128   64  127 1    
   129   65   66 2    
@<TRIPOS>SUBSTRUCTURE
     1 UNK         1 GROUP             0       ****    0 ROOT    
