@<TRIPOS>MOLECULE
3R135
127   129    1
SMALL
USER_CHARGES


@<TRIPOS>ATOM
      1 CA        -85.5848   29.6606  -74.0644 C.3       0 UNK        -0.1998 
      2 C         -84.2788   28.9782  -74.4433 C.2       0 UNK         0.4909 
      3 O         -84.0680   28.6679  -75.6168 O.2       0 UNK        -0.5240 
      4 N         -83.3976   28.7515  -73.4614 N.am      1 UNK        -0.4739 
      5 CA        -82.1109   28.0658  -73.6320 C.3       1 UNK         0.0864 
      6 C6        -81.1631   28.3095  -72.4306 C.3       11 UNK        -0.0881 
      7 S7        -80.8216   30.0830  -72.1570 S.3       11 UNK        -0.2682 
      8 C8        -79.9796   30.0524  -70.5417 C.3       11 UNK         0.0289 
      9 C9        -78.5586   29.5232  -70.6638 C.ar      11 UNK        -0.0687 
     10 C10       -78.3039   28.1580  -70.5150 C.ar      11 UNK        -0.0823 
     11 C11       -77.0127   27.6529  -70.6917 C.ar      11 UNK        -0.0830 
     12 C12       -75.9600   28.5342  -70.9581 C.ar      11 UNK        -0.1021 
     13 C13       -76.1975   29.9061  -71.0871 C.ar      11 UNK        -0.0753 
     14 C14       -77.5011   30.3940  -70.9456 C.ar      11 UNK        -0.0933 
     15 C15       -75.0465   30.8588  -71.3784 C.3       11 UNK         0.0166 
     16 S16       -74.3727   30.6132  -73.0525 S.3       11 UNK        -0.2615 
     17 C17       -73.3744   32.1266  -73.2886 C.3       11 UNK        -0.0865 
     18 CA        -71.8418   32.0250  -73.0068 C.3       10 UNK         0.0862 
     19 C         -71.4265   31.9272  -71.5044 C.2       10 UNK         0.5551 
     20 N         -72.1695   32.5453  -70.5952 N.am      10 UNK        -0.7319 
     21 O         -70.3882   31.3694  -71.1538 O.2       10 UNK        -0.5018 
     22 N         -71.1257   31.1283  -73.9348 N.am      10 UNK        -0.4509 
     23 C         -70.9566   29.8015  -73.8440 C.2       10 UNK         0.4899 
     24 O         -71.4310   29.0837  -72.9605 O.2       10 UNK        -0.4839 
     25 CA        -70.0368   29.1829  -74.9122 C.3       9 UNK         0.0222 
     26 CB        -68.5626   29.3199  -74.4944 C.3       9 UNK        -0.1966 
     27 N         -70.3408   27.7662  -75.1165 N.am      9 UNK        -0.4218 
     28 C         -71.3611   27.3086  -75.8515 C.2       9 UNK         0.5020 
     29 O         -72.0792   28.0306  -76.5482 O.2       9 UNK        -0.5274 
     30 CA        -71.6013   25.7909  -75.7846 C.3       8 UNK         0.0270 
     31 CB        -72.0375   25.3640  -74.3699 C.3       8 UNK        -0.1976 
     32 N         -72.6412   25.3879  -76.7314 N.am      8 UNK        -0.4313 
     33 C         -72.4244   24.8148  -77.9221 C.2       8 UNK         0.5041 
     34 O         -71.3001   24.5488  -78.3518 O.2       8 UNK        -0.5577 
     35 CA        -73.6487   24.4439  -78.7848 C.3       7 UNK         0.0284 
     36 CB        -73.8358   22.9177  -78.8193 C.3       7 UNK        -0.1958 
     37 N         -74.8988   25.0581  -78.3347 N.am      7 UNK        -0.4454 
     38 C         -75.2407   26.3382  -78.5299 C.2       7 UNK         0.5089 
     39 O         -74.5774   27.1312  -79.1981 O.2       7 UNK        -0.5125 
     40 CA        -76.5307   26.8215  -77.8404 C.3       6 UNK         0.0408 
     41 CB        -77.7393   26.6473  -78.7727 C.3       6 UNK        -0.1791 
     42 N         -76.7985   26.1482  -76.5643 N.am      6 UNK        -0.4762 
     43 C         -76.0021   26.2023  -75.4858 C.2       6 UNK         0.5007 
     44 O         -74.9583   26.8485  -75.4461 O.2       6 UNK        -0.5032 
     45 CA        -76.4069   25.3567  -74.2663 C.3       5 UNK         0.0783 
     46 C46       -77.4683   26.0899  -73.4181 C.3       11 UNK        -0.0857 
     47 S47       -77.8103   25.2356  -71.8401 S.3       11 UNK        -0.2512 
     48 C48       -76.7631   26.1506  -70.6540 C.3       11 UNK         0.0225 
     49 N         -76.8424   24.0229  -74.6825 N.am      5 UNK        -0.4615 
     50 C         -76.0188   23.0551  -75.1046 C.2       4 UNK         0.5053 
     51 O         -74.7939   23.1617  -75.1329 O.2       4 UNK        -0.5105 
     52 CA        -76.6747   21.7555  -75.6015 C.3       4 UNK         0.0263 
     53 CB        -76.8762   20.7754  -74.4349 C.3       4 UNK        -0.1981 
     54 N         -77.9568   21.9852  -76.2732 N.am      4 UNK        -0.4224 
     55 C         -78.0969   22.6354  -77.4377 C.2       3 UNK         0.4895 
     56 O         -77.1539   23.0729  -78.0965 O.2       3 UNK        -0.5091 
     57 CA        -79.5375   22.8832  -77.9188 C.3       3 UNK         0.0250 
     58 CB        -80.0729   21.6601  -78.6799 C.3       3 UNK        -0.1996 
     59 N         -80.4606   23.2350  -76.8316 N.am      3 UNK        -0.4254 
     60 C         -80.3391   24.3281  -76.0663 C.2       2 UNK         0.5004 
     61 O         -79.4276   25.1505  -76.1886 O.2       2 UNK        -0.5226 
     62 CA        -81.3681   24.5151  -74.9475 C.3       2 UNK         0.0269 
     63 CB        -81.0157   23.6293  -73.7363 C.3       2 UNK        -0.1926 
     64 N         -81.3664   25.9262  -74.5667 N.am      2 UNK        -0.4687 
     65 C         -82.3164   26.5528  -73.8659 C.2       1 UNK         0.5165 
     66 O         -83.3051   25.9818  -73.3963 O.2       1 UNK        -0.5079 
     67 H67       -85.6301   29.8918  -73.0002 H         1 UNK         0.0900 
     68 H68       -85.6961   30.5923  -74.6184 H         1 UNK         0.0900 
     69 H69       -86.4289   29.0158  -74.3075 H         1 UNK         0.0900 
     70 H70       -83.6248   29.0196  -72.5149 H         1 UNK         0.2959 
     71 H71       -81.6361   28.4758  -74.5267 H         1 UNK         0.1079 
     72 H72       -80.2090   27.8053  -72.5962 H         1 UNK         0.0837 
     73 H73       -81.5843   27.8843  -71.5174 H         1 UNK         0.0837 
     74 H74       -79.9618   31.0650  -70.1359 H         1 UNK         0.0685 
     75 H75       -80.5548   29.4523  -69.8350 H         1 UNK         0.0685 
     76 H76       -79.1196   27.4782  -70.3096 H         1 UNK         0.1434 
     77 H77       -74.9559   28.1553  -71.0946 H         1 UNK         0.1329 
     78 H78       -77.6968   31.4512  -71.0618 H         1 UNK         0.1335 
     79 H79       -75.3743   31.8929  -71.2635 H         1 UNK         0.0680 
     80 H80       -74.2559   30.6965  -70.6452 H         1 UNK         0.0680 
     81 H81       -73.5079   32.4188  -74.3312 H         1 UNK         0.1032 
     82 H82       -73.8184   32.9477  -72.7250 H         1 UNK         0.1032 
     83 H83       -71.4438   33.0022  -73.2831 H         1 UNK         0.0461 
     84 H84       -72.9941   33.0624  -70.8517 H         1 UNK         0.3453 
     85 H85       -71.8816   32.5111  -69.6298 H         1 UNK         0.3453 
     86 H86       -70.6526   31.6028  -74.6901 H         1 UNK         0.2984 
     87 H87       -70.1810   29.7156  -75.8550 H         1 UNK         0.0554 
     88 H88       -67.8947   28.8998  -75.2468 H         1 UNK         0.0847 
     89 H89       -68.3624   28.8163  -73.5476 H         1 UNK         0.0847 
     90 H90       -68.2861   30.3675  -74.3678 H         1 UNK         0.0847 
     91 H91       -69.8273   27.1123  -74.5437 H         1 UNK         0.3141 
     92 H92       -70.6619   25.2875  -76.0224 H         1 UNK         0.0743 
     93 H93       -72.9110   25.9208  -74.0299 H         1 UNK         0.0784 
     94 H94       -72.2850   24.3027  -74.3350 H         1 UNK         0.0784 
     95 H95       -71.2443   25.5325  -73.6409 H         1 UNK         0.0784 
     96 H96       -73.5817   25.6801  -76.4897 H         1 UNK         0.3213 
     97 H97       -73.4438   24.7853  -79.8018 H         1 UNK         0.0855 
     98 H98       -74.0473   22.5168  -77.8272 H         1 UNK         0.0814 
     99 H99       -72.9380   22.4202  -79.1884 H         1 UNK         0.0814 
    100 H100      -74.6572   22.6330  -79.4772 H         1 UNK         0.0814 
    101 H101      -75.5549   24.4571  -77.8477 H         1 UNK         0.3105 
    102 H102      -76.4128   27.8865  -77.6302 H         1 UNK         0.0547 
    103 H103      -77.5898   27.1850  -79.7098 H         1 UNK         0.0837 
    104 H104      -77.9072   25.5993  -79.0215 H         1 UNK         0.0837 
    105 H105      -78.6517   27.0337  -78.3180 H         1 UNK         0.0837 
    106 H106      -77.6746   25.6328  -76.4966 H         1 UNK         0.3020 
    107 H107      -75.5103   25.2420  -73.6520 H         1 UNK         0.1245 
    108 H108      -78.4087   26.1692  -73.9638 H         1 UNK         0.0781 
    109 H109      -77.1583   27.1179  -73.2279 H         1 UNK         0.0781 
    110 H110      -75.7170   25.9250  -70.8671 H         1 UNK         0.0836 
    111 H111      -76.9596   25.7808  -69.6469 H         1 UNK         0.0836 
    112 H112      -77.8382   23.8676  -74.7152 H         1 UNK         0.3022 
    113 H113      -75.9941   21.2968  -76.3222 H         1 UNK         0.0747 
    114 H114      -77.2701   19.8200  -74.7821 H         1 UNK         0.0793 
    115 H115      -75.9301   20.5700  -73.9317 H         1 UNK         0.0793 
    116 H116      -77.5636   21.1717  -73.6862 H         1 UNK         0.0793 
    117 H117      -78.7870   21.6532  -75.8048 H         1 UNK         0.3047 
    118 H118      -79.5084   23.7268  -78.6116 H         1 UNK         0.0822 
    119 H119      -81.0544   21.8592  -79.1106 H         1 UNK         0.0807 
    120 H120      -80.1600   20.7851  -78.0345 H         1 UNK         0.0807 
    121 H121      -79.4089   21.3927  -79.5034 H         1 UNK         0.0807 
    122 H122      -81.2318   22.6032  -76.6678 H         1 UNK         0.2946 
    123 H123      -82.3562   24.2503  -75.3306 H         1 UNK         0.1144 
    124 H124      -81.7429   23.7416  -72.9323 H         1 UNK         0.0793 
    125 H125      -80.0339   23.8739  -73.3311 H         1 UNK         0.0793 
    126 H126      -81.0035   22.5734  -74.0086 H         1 UNK         0.0793 
    127 H127      -80.5884   26.4456  -74.9559 H         1 UNK         0.2896 
@<TRIPOS>BOND
     1    1    2 1    
     2    1   67 1    
     3    1   68 1    
     4    1   69 1    
     5    2    3 2    
     6    2    4 am   BACKBONE|DICT|INTERRES
     7    4    5 1    
     8    4   70 1    
     9    5    6 1    
    10    5   65 1    
    11    5   71 1    
    12    6    7 1    
    13    6   72 1    
    14    6   73 1    
    15    7    8 1    
    16    8    9 1    
    17    8   74 1    
    18    8   75 1    
    19    9   10 ar   
    20    9   14 ar   
    21   10   11 ar   
    22   10   76 1    
    23   11   12 ar   
    24   11   48 1    
    25   12   13 ar   
    26   12   77 1    
    27   13   14 ar   
    28   13   15 1    
    29   14   78 1    
    30   15   16 1    
    31   15   79 1    
    32   15   80 1    
    33   16   17 1    
    34   17   18 1    
    35   17   81 1    
    36   17   82 1    
    37   18   19 1    
    38   18   22 1    
    39   18   83 1    
    40   19   20 am   BACKBONE|DICT|INTERRES
    41   19   21 2    
    42   20   84 1    
    43   20   85 1    
    44   22   23 am   BACKBONE|DICT|INTERRES
    45   22   86 1    
    46   23   24 2    
    47   23   25 1    
    48   25   26 1    
    49   25   27 1    
    50   25   87 1    
    51   26   88 1    
    52   26   89 1    
    53   26   90 1    
    54   27   28 am   BACKBONE|DICT|INTERRES
    55   27   91 1    
    56   28   29 2    
    57   28   30 1    
    58   30   31 1    
    59   30   32 1    
    60   30   92 1    
    61   31   93 1    
    62   31   94 1    
    63   31   95 1    
    64   32   33 am   BACKBONE|DICT|INTERRES
    65   32   96 1    
    66   33   34 2    
    67   33   35 1    
    68   35   36 1    
    69   35   37 1    
    70   35   97 1    
    71   36   98 1    
    72   36   99 1    
    73   36  100 1    
    74   37   38 am   BACKBONE|DICT|INTERRES
    75   37  101 1    
    76   38   39 2    
    77   38   40 1    
    78   40   41 1    
    79   40   42 1    
    80   40  102 1    
    81   41  103 1    
    82   41  104 1    
    83   41  105 1    
    84   42   43 am   BACKBONE|DICT|INTERRES
    85   42  106 1    
    86   43   44 2    
    87   43   45 1    
    88   45   46 1    
    89   45   49 1    
    90   45  107 1    
    91   46   47 1    
    92   46  108 1    
    93   46  109 1    
    94   47   48 1    
    95   48  110 1    
    96   48  111 1    
    97   49   50 am   BACKBONE|DICT|INTERRES
    98   49  112 1    
    99   50   51 2    
   100   50   52 1    
   101   52   53 1    
   102   52   54 1    
   103   52  113 1    
   104   53  114 1    
   105   53  115 1    
   106   53  116 1    
   107   54   55 am   BACKBONE|DICT|INTERRES
   108   54  117 1    
   109   55   56 2    
   110   55   57 1    
   111   57   58 1    
   112   57   59 1    
   113   57  118 1    
   114   58  119 1    
   115   58  120 1    
   116   58  121 1    
   117   59   60 am   BACKBONE|DICT|INTERRES
   118   59  122 1    
   119   60   61 2    
   120   60   62 1    
   121   62   63 1    
   122   62   64 1    
   123   62  123 1    
   124   63  124 1    
   125   63  125 1    
   126   63  126 1    
   127   64   65 am   BACKBONE|DICT|INTERRES
   128   64  127 1    
   129   65   66 2    
@<TRIPOS>SUBSTRUCTURE
     1 UNK         1 GROUP             0       ****    0 ROOT    
