@<TRIPOS>MOLECULE
3R135
127   129    1
SMALL
USER_CHARGES


@<TRIPOS>ATOM
      1 CA        -84.9998   30.7785  -75.9396 C.3       0 UNK        -0.1998 
      2 C         -84.0754   29.6767  -75.4425 C.2       0 UNK         0.4909 
      3 O         -84.5074   28.8276  -74.6618 O.2       0 UNK        -0.5240 
      4 N         -82.8116   29.6929  -75.8895 N.am      1 UNK        -0.4739 
      5 CA        -81.7573   28.7202  -75.5678 C.3       1 UNK         0.0864 
      6 C6        -81.3177   28.7576  -74.0727 C.3       11 UNK        -0.0881 
      7 S7        -80.5130   30.3347  -73.6304 S.3       11 UNK        -0.2682 
      8 C8        -78.7578   29.9410  -73.9330 C.3       11 UNK         0.0289 
      9 C9        -78.0406   29.4336  -72.6869 C.ar      11 UNK        -0.0687 
     10 C10       -78.2147   28.1206  -72.2322 C.ar      11 UNK        -0.0823 
     11 C11       -77.5534   27.6685  -71.0861 C.ar      11 UNK        -0.0830 
     12 C12       -76.6849   28.5295  -70.4102 C.ar      11 UNK        -0.1021 
     13 C13       -76.4789   29.8332  -70.8691 C.ar      11 UNK        -0.0753 
     14 C14       -77.1700   30.2833  -71.9973 C.ar      11 UNK        -0.0933 
     15 C15       -75.5101   30.7577  -70.1467 C.3       11 UNK         0.0166 
     16 S16       -73.9635   30.9867  -71.0809 S.3       11 UNK        -0.2615 
     17 C17       -73.2296   29.3170  -70.9951 C.3       11 UNK        -0.0865 
     18 CA        -72.0894   29.1190  -72.0252 C.3       10 UNK         0.0862 
     19 C         -71.3884   27.7566  -71.8055 C.2       10 UNK         0.5551 
     20 N         -70.1587   27.7593  -71.3109 N.am      10 UNK        -0.7319 
     21 O         -71.9650   26.6973  -72.0429 O.2       10 UNK        -0.5018 
     22 N         -72.5917   29.1755  -73.4010 N.am      10 UNK        -0.4509 
     23 C         -72.2106   30.0457  -74.3407 C.2       10 UNK         0.4899 
     24 O         -71.4308   30.9805  -74.1469 O.2       10 UNK        -0.4839 
     25 CA        -72.7917   29.7945  -75.7451 C.3       9 UNK         0.0222 
     26 CB        -72.3148   30.8155  -76.7997 C.3       9 UNK        -0.1966 
     27 N         -72.5455   28.4184  -76.1910 N.am      9 UNK        -0.4218 
     28 C         -71.3611   27.8116  -76.3698 C.2       9 UNK         0.5020 
     29 O         -70.2713   28.3759  -76.2636 O.2       9 UNK        -0.5274 
     30 CA        -71.3818   26.3080  -76.7031 C.3       8 UNK         0.0270 
     31 CB        -70.9964   25.4883  -75.4604 C.3       8 UNK        -0.1976 
     32 N         -72.6749   25.8330  -77.2018 N.am      8 UNK        -0.4313 
     33 C         -73.1677   26.0838  -78.4221 C.2       8 UNK         0.5041 
     34 O         -72.5550   26.6964  -79.2973 O.2       8 UNK        -0.5577 
     35 CA        -74.6010   25.5970  -78.6990 C.3       7 UNK         0.0284 
     36 CB        -74.6162   24.1024  -79.0580 C.3       7 UNK        -0.1958 
     37 N         -75.5070   25.8483  -77.5736 N.am      7 UNK        -0.4454 
     38 C         -75.8743   27.0684  -77.1544 C.2       7 UNK         0.5089 
     39 O         -75.5152   28.1170  -77.6883 O.2       7 UNK        -0.5125 
     40 CA        -76.7680   27.1317  -75.9085 C.3       6 UNK         0.0408 
     41 CB        -78.2399   26.9260  -76.2912 C.3       6 UNK        -0.1791 
     42 N         -76.3702   26.1475  -74.9018 N.am      6 UNK        -0.4762 
     43 C         -75.2707   26.2609  -74.1399 C.2       6 UNK         0.5007 
     44 O         -74.5216   27.2370  -74.1738 O.2       6 UNK        -0.5032 
     45 CA        -74.9058   25.0644  -73.2354 C.3       5 UNK         0.0783 
     46 C46       -75.4746   25.2105  -71.8031 C.3       11 UNK        -0.0857 
     47 S47       -77.2824   24.9549  -71.7104 S.3       11 UNK        -0.2512 
     48 C48       -77.8008   26.2620  -70.5542 C.3       11 UNK         0.0225 
     49 N         -75.2569   23.7737  -73.8360 N.am      5 UNK        -0.4615 
     50 C         -74.7145   23.2810  -74.9556 C.2       4 UNK         0.5053 
     51 O         -73.8244   23.8482  -75.5856 O.2       4 UNK        -0.5105 
     52 CA        -75.2779   21.9538  -75.4883 C.3       4 UNK         0.0263 
     53 CB        -74.4496   20.7727  -74.9591 C.3       4 UNK        -0.1981 
     54 N         -76.6953   21.7331  -75.1817 N.am      4 UNK        -0.4224 
     55 C         -77.7076   22.5096  -75.5946 C.2       3 UNK         0.4895 
     56 O         -77.5459   23.5381  -76.2568 O.2       3 UNK        -0.5091 
     57 CA        -79.1224   22.0151  -75.2282 C.3       3 UNK         0.0250 
     58 CB        -79.2570   21.6755  -73.7254 C.3       3 UNK        -0.1996 
     59 N         -80.1962   22.9203  -75.6637 N.am      3 UNK        -0.4254 
     60 C         -80.4839   24.1378  -75.1824 C.2       2 UNK         0.5004 
     61 O         -79.8804   24.6871  -74.2558 O.2       2 UNK        -0.5226 
     62 CA        -81.6720   24.8594  -75.8358 C.3       2 UNK         0.0269 
     63 CB        -83.0142   24.2367  -75.4086 C.3       2 UNK        -0.1926 
     64 N         -81.6265   26.2581  -75.4257 N.am      2 UNK        -0.4687 
     65 C         -82.0918   27.3071  -76.1114 C.2       1 UNK         0.5165 
     66 O         -82.7134   27.1934  -77.1713 O.2       1 UNK        -0.5079 
     67 H67       -85.8467   30.3457  -76.4714 H         1 UNK         0.0900 
     68 H68       -85.3836   31.3541  -75.0976 H         1 UNK         0.0900 
     69 H69       -84.4904   31.4655  -76.6153 H         1 UNK         0.0900 
     70 H70       -82.5390   30.4107  -76.5462 H         1 UNK         0.2959 
     71 H71       -80.8945   29.0259  -76.1617 H         1 UNK         0.1079 
     72 H72       -80.6203   27.9590  -73.8381 H         1 UNK         0.0837 
     73 H73       -82.1716   28.6036  -73.4115 H         1 UNK         0.0837 
     74 H74       -78.2682   30.8436  -74.3020 H         1 UNK         0.0685 
     75 H75       -78.6731   29.2144  -74.7381 H         1 UNK         0.0685 
     76 H76       -78.8600   27.4358  -72.7601 H         1 UNK         0.1434 
     77 H77       -76.1642   28.1845  -69.5273 H         1 UNK         0.1329 
     78 H78       -77.0138   31.2949  -72.3462 H         1 UNK         0.1335 
     79 H79       -75.9815   31.7308  -70.0012 H         1 UNK         0.0680 
     80 H80       -75.2772   30.3787  -69.1503 H         1 UNK         0.0680 
     81 H81       -74.0055   28.5673  -71.1569 H         1 UNK         0.1032 
     82 H82       -72.8614   29.1655  -69.9786 H         1 UNK         0.1032 
     83 H83       -71.3526   29.9089  -71.8656 H         1 UNK         0.0461 
     84 H84       -69.6808   28.6226  -71.1037 H         1 UNK         0.3453 
     85 H85       -69.6957   26.8790  -71.1481 H         1 UNK         0.3453 
     86 H86       -73.2255   28.4211  -73.6618 H         1 UNK         0.2984 
     87 H87       -73.8745   29.8957  -75.6549 H         1 UNK         0.0554 
     88 H88       -72.5910   31.8301  -76.5104 H         1 UNK         0.0847 
     89 H89       -72.7682   30.6202  -77.7715 H         1 UNK         0.0847 
     90 H90       -71.2318   30.7980  -76.9248 H         1 UNK         0.0847 
     91 H91       -73.3732   27.8441  -76.2761 H         1 UNK         0.3141 
     92 H92       -70.6311   26.1325  -77.4765 H         1 UNK         0.0743 
     93 H93       -70.0208   25.7902  -75.0770 H         1 UNK         0.0784 
     94 H94       -71.7183   25.6211  -74.6533 H         1 UNK         0.0784 
     95 H95       -70.9411   24.4235  -75.6876 H         1 UNK         0.0784 
     96 H96       -73.2127   25.2371  -76.5724 H         1 UNK         0.3213 
     97 H97       -74.9795   26.1548  -79.5585 H         1 UNK         0.0855 
     98 H98       -74.2168   23.4860  -78.2529 H         1 UNK         0.0814 
     99 H99       -74.0079   23.9113  -79.9431 H         1 UNK         0.0814 
    100 H100      -75.6261   23.7555  -79.2779 H         1 UNK         0.0814 
    101 H101      -75.8672   25.0434  -77.0764 H         1 UNK         0.3105 
    102 H102      -76.6647   28.1266  -75.4705 H         1 UNK         0.0547 
    103 H103      -78.4032   25.9725  -76.7938 H         1 UNK         0.0837 
    104 H104      -78.5809   27.7114  -76.9665 H         1 UNK         0.0837 
    105 H105      -78.8769   26.9492  -75.4095 H         1 UNK         0.0837 
    106 H106      -76.9265   25.3033  -74.8392 H         1 UNK         0.3020 
    107 H107      -73.8166   25.0822  -73.1498 H         1 UNK         0.1245 
    108 H108      -75.2043   26.1828  -71.3878 H         1 UNK         0.0781 
    109 H109      -75.0032   24.4756  -71.1491 H         1 UNK         0.0781 
    110 H110      -77.2940   26.1091  -69.6000 H         1 UNK         0.0836 
    111 H111      -78.8666   26.1455  -70.3535 H         1 UNK         0.0836 
    112 H112      -76.0015   23.2624  -73.3852 H         1 UNK         0.3022 
    113 H113      -75.1812   21.9754  -76.5755 H         1 UNK         0.0747 
    114 H114      -74.7668   19.8312  -75.4081 H         1 UNK         0.0793 
    115 H115      -73.3922   20.9010  -75.1958 H         1 UNK         0.0793 
    116 H116      -74.5312   20.6743  -73.8758 H         1 UNK         0.0793 
    117 H117      -76.9134   20.9016  -74.6518 H         1 UNK         0.3047 
    118 H118      -79.2746   21.0924  -75.7903 H         1 UNK         0.0822 
    119 H119      -80.2823   21.4062  -73.4714 H         1 UNK         0.0807 
    120 H120      -78.9677   22.5140  -73.0904 H         1 UNK         0.0807 
    121 H121      -78.6309   20.8277  -73.4467 H         1 UNK         0.0807 
    122 H122      -80.7435   22.5827  -76.4431 H         1 UNK         0.2946 
    123 H123      -81.5587   24.7953  -76.9207 H         1 UNK         0.1144 
    124 H124      -83.8562   24.7579  -75.8645 H         1 UNK         0.0793 
    125 H125      -83.1461   24.2726  -74.3264 H         1 UNK         0.0793 
    126 H126      -83.0805   23.1913  -75.7120 H         1 UNK         0.0793 
    127 H127      -81.0780   26.3999  -74.5866 H         1 UNK         0.2896 
@<TRIPOS>BOND
     1    1    2 1    
     2    1   67 1    
     3    1   68 1    
     4    1   69 1    
     5    2    3 2    
     6    2    4 am   BACKBONE|DICT|INTERRES
     7    4    5 1    
     8    4   70 1    
     9    5    6 1    
    10    5   65 1    
    11    5   71 1    
    12    6    7 1    
    13    6   72 1    
    14    6   73 1    
    15    7    8 1    
    16    8    9 1    
    17    8   74 1    
    18    8   75 1    
    19    9   10 ar   
    20    9   14 ar   
    21   10   11 ar   
    22   10   76 1    
    23   11   12 ar   
    24   11   48 1    
    25   12   13 ar   
    26   12   77 1    
    27   13   14 ar   
    28   13   15 1    
    29   14   78 1    
    30   15   16 1    
    31   15   79 1    
    32   15   80 1    
    33   16   17 1    
    34   17   18 1    
    35   17   81 1    
    36   17   82 1    
    37   18   19 1    
    38   18   22 1    
    39   18   83 1    
    40   19   20 am   BACKBONE|DICT|INTERRES
    41   19   21 2    
    42   20   84 1    
    43   20   85 1    
    44   22   23 am   BACKBONE|DICT|INTERRES
    45   22   86 1    
    46   23   24 2    
    47   23   25 1    
    48   25   26 1    
    49   25   27 1    
    50   25   87 1    
    51   26   88 1    
    52   26   89 1    
    53   26   90 1    
    54   27   28 am   BACKBONE|DICT|INTERRES
    55   27   91 1    
    56   28   29 2    
    57   28   30 1    
    58   30   31 1    
    59   30   32 1    
    60   30   92 1    
    61   31   93 1    
    62   31   94 1    
    63   31   95 1    
    64   32   33 am   BACKBONE|DICT|INTERRES
    65   32   96 1    
    66   33   34 2    
    67   33   35 1    
    68   35   36 1    
    69   35   37 1    
    70   35   97 1    
    71   36   98 1    
    72   36   99 1    
    73   36  100 1    
    74   37   38 am   BACKBONE|DICT|INTERRES
    75   37  101 1    
    76   38   39 2    
    77   38   40 1    
    78   40   41 1    
    79   40   42 1    
    80   40  102 1    
    81   41  103 1    
    82   41  104 1    
    83   41  105 1    
    84   42   43 am   BACKBONE|DICT|INTERRES
    85   42  106 1    
    86   43   44 2    
    87   43   45 1    
    88   45   46 1    
    89   45   49 1    
    90   45  107 1    
    91   46   47 1    
    92   46  108 1    
    93   46  109 1    
    94   47   48 1    
    95   48  110 1    
    96   48  111 1    
    97   49   50 am   BACKBONE|DICT|INTERRES
    98   49  112 1    
    99   50   51 2    
   100   50   52 1    
   101   52   53 1    
   102   52   54 1    
   103   52  113 1    
   104   53  114 1    
   105   53  115 1    
   106   53  116 1    
   107   54   55 am   BACKBONE|DICT|INTERRES
   108   54  117 1    
   109   55   56 2    
   110   55   57 1    
   111   57   58 1    
   112   57   59 1    
   113   57  118 1    
   114   58  119 1    
   115   58  120 1    
   116   58  121 1    
   117   59   60 am   BACKBONE|DICT|INTERRES
   118   59  122 1    
   119   60   61 2    
   120   60   62 1    
   121   62   63 1    
   122   62   64 1    
   123   62  123 1    
   124   63  124 1    
   125   63  125 1    
   126   63  126 1    
   127   64   65 am   BACKBONE|DICT|INTERRES
   128   64  127 1    
   129   65   66 2    
@<TRIPOS>SUBSTRUCTURE
     1 UNK         1 GROUP             0       ****    0 ROOT    
