@<TRIPOS>MOLECULE
3R135
127   129    1
SMALL
USER_CHARGES


@<TRIPOS>ATOM
      1 CA        -81.6365   30.2757  -76.7379 C.3       0 UNK        -0.1998 
      2 C         -81.0413   29.3357  -75.7006 C.2       0 UNK         0.4909 
      3 O         -79.9342   28.8365  -75.8948 O.2       0 UNK        -0.5240 
      4 N         -81.7637   29.1013  -74.5992 N.am      1 UNK        -0.4739 
      5 CA        -81.3652   28.1924  -73.5182 C.3       1 UNK         0.0864 
      6 C6        -82.0634   28.5439  -72.1779 C.3       11 UNK        -0.0881 
      7 S7        -81.8237   30.2881  -71.6882 S.3       11 UNK        -0.2682 
      8 C8        -80.4279   30.1801  -70.5197 C.3       11 UNK         0.0289 
      9 C9        -79.1604   29.6222  -71.1571 C.ar      11 UNK        -0.0687 
     10 C10       -78.5298   28.5070  -70.6015 C.ar      11 UNK        -0.0823 
     11 C11       -77.3645   27.9836  -71.1686 C.ar      11 UNK        -0.0830 
     12 C12       -76.8384   28.5877  -72.3198 C.ar      11 UNK        -0.1021 
     13 C13       -77.4556   29.7100  -72.8908 C.ar      11 UNK        -0.0753 
     14 C14       -78.6091   30.2239  -72.2918 C.ar      11 UNK        -0.0933 
     15 C15       -76.9471   30.3906  -74.1644 C.3       11 UNK         0.0166 
     16 S16       -75.2735   29.9215  -74.7213 S.3       11 UNK        -0.2615 
     17 C17       -74.2286   30.7271  -73.4654 C.3       11 UNK        -0.0865 
     18 CA        -72.7137   30.6486  -73.8258 C.3       10 UNK         0.0862 
     19 C         -71.8107   31.5403  -72.9158 C.2       10 UNK         0.5551 
     20 N         -72.2366   32.7543  -72.5910 N.am      10 UNK        -0.7319 
     21 O         -70.6989   31.1718  -72.5395 O.2       10 UNK        -0.5018 
     22 N         -72.2200   29.2643  -73.9563 N.am      10 UNK        -0.4509 
     23 C         -72.1410   28.3524  -72.9754 C.2       10 UNK         0.4899 
     24 O         -72.5697   28.5278  -71.8338 O.2       10 UNK        -0.4839 
     25 CA        -71.4345   27.0334  -73.3313 C.3       9 UNK         0.0222 
     26 CB        -71.7304   25.8844  -72.3497 C.3       9 UNK        -0.1966 
     27 N         -71.7742   26.6154  -74.6897 N.am      9 UNK        -0.4218 
     28 C         -70.9067   26.1328  -75.5867 C.2       9 UNK         0.5020 
     29 O         -69.7092   25.9527  -75.3588 O.2       9 UNK        -0.5274 
     30 CA        -71.4571   25.7988  -76.9841 C.3       8 UNK         0.0270 
     31 CB        -71.9930   24.3582  -77.0165 C.3       8 UNK        -0.1976 
     32 N         -72.5046   26.7074  -77.4560 N.am      8 UNK        -0.4313 
     33 C         -72.4068   28.0333  -77.6130 C.2       8 UNK         0.5041 
     34 O         -71.3969   28.6829  -77.3395 O.2       8 UNK        -0.5577 
     35 CA        -73.6454   28.7733  -78.1519 C.3       7 UNK         0.0284 
     36 CB        -73.6942   28.7329  -79.6916 C.3       7 UNK        -0.1958 
     37 N         -74.9162   28.3400  -77.5543 N.am      7 UNK        -0.4454 
     38 C         -75.5452   27.1623  -77.6564 C.2       7 UNK         0.5089 
     39 O         -75.1512   26.2210  -78.3487 O.2       7 UNK        -0.5125 
     40 CA        -76.8027   26.9971  -76.7882 C.3       6 UNK         0.0408 
     41 CB        -78.0200   26.6639  -77.6662 C.3       6 UNK        -0.1791 
     42 N         -76.6691   25.9624  -75.7601 N.am      6 UNK        -0.4762 
     43 C         -75.6408   25.7460  -74.9234 C.2       6 UNK         0.5007 
     44 O         -74.5951   26.3968  -74.9175 O.2       6 UNK        -0.5032 
     45 CA        -75.8072   24.5805  -73.9293 C.3       5 UNK         0.0783 
     46 C46       -76.5605   25.0178  -72.6486 C.3       11 UNK        -0.0857 
     47 S47       -75.4778   25.8660  -71.4586 S.3       11 UNK        -0.2512 
     48 C48       -76.6980   26.7949  -70.4713 C.3       11 UNK         0.0225 
     49 N         -76.4924   23.4541  -74.5647 N.am      5 UNK        -0.4615 
     50 C         -75.8887   22.4145  -75.1525 C.2       4 UNK         0.5053 
     51 O         -74.6665   22.2872  -75.2244 O.2       4 UNK        -0.5105 
     52 CA        -76.7904   21.3073  -75.7322 C.3       4 UNK         0.0263 
     53 CB        -76.8186   20.0951  -74.7866 C.3       4 UNK        -0.1981 
     54 N         -78.1664   21.7497  -75.9764 N.am      4 UNK        -0.4224 
     55 C         -78.5537   22.4610  -77.0438 C.2       3 UNK         0.4895 
     56 O         -77.8070   22.7591  -77.9757 O.2       3 UNK        -0.5091 
     57 CA        -80.0186   22.9384  -77.0733 C.3       3 UNK         0.0250 
     58 CB        -80.8968   21.9234  -77.8230 C.3       3 UNK        -0.1996 
     59 N         -80.6145   23.2185  -75.7580 N.am      3 UNK        -0.4254 
     60 C         -80.1400   24.1093  -74.8768 C.2       2 UNK         0.5004 
     61 O         -79.0659   24.6959  -75.0122 O.2       2 UNK        -0.5226 
     62 CA        -80.9675   24.3649  -73.6093 C.3       2 UNK         0.0269 
     63 CB        -80.4125   23.5487  -72.4311 C.3       2 UNK        -0.1926 
     64 N         -80.9305   25.7896  -73.2687 N.am      2 UNK        -0.4687 
     65 C         -81.6391   26.7266  -73.9125 C.2       1 UNK         0.5165 
     66 O         -82.4987   26.4626  -74.7589 O.2       1 UNK        -0.5079 
     67 H67       -81.7539   29.7572  -77.6890 H         1 UNK         0.0900 
     68 H68       -80.9759   31.1283  -76.8931 H         1 UNK         0.0900 
     69 H69       -82.6126   30.6534  -76.4338 H         1 UNK         0.0900 
     70 H70       -82.6735   29.5265  -74.4963 H         1 UNK         0.2959 
     71 H71       -80.2864   28.2869  -73.3811 H         1 UNK         0.1079 
     72 H72       -83.1381   28.3659  -72.2512 H         1 UNK         0.0837 
     73 H73       -81.7060   27.8974  -71.3740 H         1 UNK         0.0837 
     74 H74       -80.2161   31.1781  -70.1340 H         1 UNK         0.0685 
     75 H75       -80.7337   29.5782  -69.6625 H         1 UNK         0.0685 
     76 H76       -78.9418   28.0492  -69.7121 H         1 UNK         0.1434 
     77 H77       -75.9419   28.1866  -72.7688 H         1 UNK         0.1329 
     78 H78       -79.0986   31.0859  -72.7247 H         1 UNK         0.1335 
     79 H79       -77.6440   30.1557  -74.9699 H         1 UNK         0.0680 
     80 H80       -76.9793   31.4739  -74.0385 H         1 UNK         0.0680 
     81 H81       -74.4223   30.2781  -72.4903 H         1 UNK         0.1032 
     82 H82       -74.5608   31.7629  -73.3919 H         1 UNK         0.1032 
     83 H83       -72.5945   31.0755  -74.8224 H         1 UNK         0.0461 
     84 H84       -71.6460   33.3390  -72.0200 H         1 UNK         0.3453 
     85 H85       -73.1226   33.1074  -72.9149 H         1 UNK         0.3453 
     86 H86       -71.8130   29.0323  -74.8520 H         1 UNK         0.2984 
     87 H87       -70.3673   27.2558  -73.2709 H         1 UNK         0.0554 
     88 H88       -71.1247   25.0072  -72.5763 H         1 UNK         0.0847 
     89 H89       -72.7763   25.5856  -72.3945 H         1 UNK         0.0847 
     90 H90       -71.5108   26.1711  -71.3206 H         1 UNK         0.0847 
     91 H91       -72.7601   26.6923  -74.9420 H         1 UNK         0.3141 
     92 H92       -70.6259   25.8725  -77.6880 H         1 UNK         0.0743 
     93 H93       -72.8574   24.2360  -76.3616 H         1 UNK         0.0784 
     94 H94       -72.2933   24.0678  -78.0235 H         1 UNK         0.0784 
     95 H95       -71.2320   23.6488  -76.6883 H         1 UNK         0.0784 
     96 H96       -73.3954   26.2881  -77.7143 H         1 UNK         0.3213 
     97 H97       -73.5310   29.8181  -77.8576 H         1 UNK         0.0855 
     98 H98       -72.7844   29.1570  -80.1185 H         1 UNK         0.0814 
     99 H99       -74.5333   29.3121  -80.0769 H         1 UNK         0.0814 
    100 H100      -73.7848   27.7158  -80.0737 H         1 UNK         0.0814 
    101 H101      -75.2929   28.9906  -76.8749 H         1 UNK         0.3105 
    102 H102      -77.0086   27.9351  -76.2702 H         1 UNK         0.0547 
    103 H103      -78.1785   27.4328  -78.4232 H         1 UNK         0.0837 
    104 H104      -77.8940   25.7119  -78.1838 H         1 UNK         0.0837 
    105 H105      -78.9326   26.6022  -77.0731 H         1 UNK         0.0837 
    106 H106      -77.5008   25.3930  -75.6196 H         1 UNK         0.3020 
    107 H107      -74.8032   24.2576  -73.6429 H         1 UNK         0.1245 
    108 H108      -76.9548   24.1422  -72.1307 H         1 UNK         0.0781 
    109 H109      -77.4259   25.6398  -72.8872 H         1 UNK         0.0781 
    110 H110      -76.1932   27.1675  -69.5792 H         1 UNK         0.0836 
    111 H111      -77.4599   26.0956  -70.1229 H         1 UNK         0.0836 
    112 H112      -77.5010   23.5324  -74.6222 H         1 UNK         0.3022 
    113 H113      -76.3491   20.9888  -76.6793 H         1 UNK         0.0747 
    114 H114      -77.3993   19.2750  -75.2095 H         1 UNK         0.0793 
    115 H115      -75.8111   19.7168  -74.6071 H         1 UNK         0.0793 
    116 H116      -77.2488   20.3479  -73.8166 H         1 UNK         0.0793 
    117 H117      -78.8519   21.5351  -75.2668 H         1 UNK         0.3047 
    118 H118      -80.0319   23.8758  -77.6338 H         1 UNK         0.0822 
    119 H119      -81.9100   22.3007  -77.9633 H         1 UNK         0.0807 
    120 H120      -80.9613   20.9736  -77.2906 H         1 UNK         0.0807 
    121 H121      -80.4927   21.7140  -78.8147 H         1 UNK         0.0807 
    122 H122      -81.4918   22.7588  -75.5588 H         1 UNK         0.2946 
    123 H123      -82.0033   24.0667  -73.7885 H         1 UNK         0.1144 
    124 H124      -80.4371   22.4800  -72.6483 H         1 UNK         0.0793 
    125 H125      -81.0020   23.7073  -71.5279 H         1 UNK         0.0793 
    126 H126      -79.3790   23.8121  -72.2054 H         1 UNK         0.0793 
    127 H127      -80.2236   26.0756  -72.6073 H         1 UNK         0.2896 
@<TRIPOS>BOND
     1    1    2 1    
     2    1   67 1    
     3    1   68 1    
     4    1   69 1    
     5    2    3 2    
     6    2    4 am   BACKBONE|DICT|INTERRES
     7    4    5 1    
     8    4   70 1    
     9    5    6 1    
    10    5   65 1    
    11    5   71 1    
    12    6    7 1    
    13    6   72 1    
    14    6   73 1    
    15    7    8 1    
    16    8    9 1    
    17    8   74 1    
    18    8   75 1    
    19    9   10 ar   
    20    9   14 ar   
    21   10   11 ar   
    22   10   76 1    
    23   11   12 ar   
    24   11   48 1    
    25   12   13 ar   
    26   12   77 1    
    27   13   14 ar   
    28   13   15 1    
    29   14   78 1    
    30   15   16 1    
    31   15   79 1    
    32   15   80 1    
    33   16   17 1    
    34   17   18 1    
    35   17   81 1    
    36   17   82 1    
    37   18   19 1    
    38   18   22 1    
    39   18   83 1    
    40   19   20 am   BACKBONE|DICT|INTERRES
    41   19   21 2    
    42   20   84 1    
    43   20   85 1    
    44   22   23 am   BACKBONE|DICT|INTERRES
    45   22   86 1    
    46   23   24 2    
    47   23   25 1    
    48   25   26 1    
    49   25   27 1    
    50   25   87 1    
    51   26   88 1    
    52   26   89 1    
    53   26   90 1    
    54   27   28 am   BACKBONE|DICT|INTERRES
    55   27   91 1    
    56   28   29 2    
    57   28   30 1    
    58   30   31 1    
    59   30   32 1    
    60   30   92 1    
    61   31   93 1    
    62   31   94 1    
    63   31   95 1    
    64   32   33 am   BACKBONE|DICT|INTERRES
    65   32   96 1    
    66   33   34 2    
    67   33   35 1    
    68   35   36 1    
    69   35   37 1    
    70   35   97 1    
    71   36   98 1    
    72   36   99 1    
    73   36  100 1    
    74   37   38 am   BACKBONE|DICT|INTERRES
    75   37  101 1    
    76   38   39 2    
    77   38   40 1    
    78   40   41 1    
    79   40   42 1    
    80   40  102 1    
    81   41  103 1    
    82   41  104 1    
    83   41  105 1    
    84   42   43 am   BACKBONE|DICT|INTERRES
    85   42  106 1    
    86   43   44 2    
    87   43   45 1    
    88   45   46 1    
    89   45   49 1    
    90   45  107 1    
    91   46   47 1    
    92   46  108 1    
    93   46  109 1    
    94   47   48 1    
    95   48  110 1    
    96   48  111 1    
    97   49   50 am   BACKBONE|DICT|INTERRES
    98   49  112 1    
    99   50   51 2    
   100   50   52 1    
   101   52   53 1    
   102   52   54 1    
   103   52  113 1    
   104   53  114 1    
   105   53  115 1    
   106   53  116 1    
   107   54   55 am   BACKBONE|DICT|INTERRES
   108   54  117 1    
   109   55   56 2    
   110   55   57 1    
   111   57   58 1    
   112   57   59 1    
   113   57  118 1    
   114   58  119 1    
   115   58  120 1    
   116   58  121 1    
   117   59   60 am   BACKBONE|DICT|INTERRES
   118   59  122 1    
   119   60   61 2    
   120   60   62 1    
   121   62   63 1    
   122   62   64 1    
   123   62  123 1    
   124   63  124 1    
   125   63  125 1    
   126   63  126 1    
   127   64   65 am   BACKBONE|DICT|INTERRES
   128   64  127 1    
   129   65   66 2    
@<TRIPOS>SUBSTRUCTURE
     1 UNK         1 GROUP             0       ****    0 ROOT    
