@<TRIPOS>MOLECULE
3R135
127   129    1
SMALL
USER_CHARGES


@<TRIPOS>ATOM
      1 CA        -78.4712   30.8045  -75.6378 C.3       0 UNK        -0.1998 
      2 C         -78.8253   29.6588  -74.7015 C.2       0 UNK         0.4909 
      3 O         -78.0194   28.7488  -74.5228 O.2       0 UNK        -0.5240 
      4 N         -80.0219   29.6999  -74.1012 N.am      1 UNK        -0.4739 
      5 CA        -80.5574   28.6297  -73.2558 C.3       1 UNK         0.0864 
      6 C6        -81.6925   29.1619  -72.3442 C.3       11 UNK        -0.0881 
      7 S7        -82.1430   28.0037  -71.0053 S.3       11 UNK        -0.2682 
      8 C8        -81.2141   28.6759  -69.5899 C.3       11 UNK         0.0289 
      9 C9        -79.7107   28.5848  -69.8054 C.ar      11 UNK        -0.0687 
     10 C10       -79.0737   27.3406  -69.7886 C.ar      11 UNK        -0.0823 
     11 C11       -77.6983   27.2447  -70.0193 C.ar      11 UNK        -0.0830 
     12 C12       -76.9534   28.4088  -70.2326 C.ar      11 UNK        -0.1021 
     13 C13       -77.5789   29.6584  -70.2489 C.ar      11 UNK        -0.0753 
     14 C14       -78.9582   29.7403  -70.0365 C.ar      11 UNK        -0.0933 
     15 C15       -76.7685   30.9223  -70.4928 C.3       11 UNK         0.0166 
     16 S16       -76.6423   31.3067  -72.2669 S.3       11 UNK        -0.2615 
     17 C17       -75.2876   30.1927  -72.7937 C.3       11 UNK        -0.0865 
     18 CA        -74.6110   30.5209  -74.1575 C.3       10 UNK         0.0862 
     19 C         -74.2738   32.0341  -74.3317 C.2       10 UNK         0.5551 
     20 N         -73.1123   32.4936  -73.8791 N.am      10 UNK        -0.7319 
     21 O         -75.0576   32.7873  -74.9042 O.2       10 UNK        -0.5018 
     22 N         -73.4435   29.6454  -74.3652 N.am      10 UNK        -0.4509 
     23 C         -72.7296   29.5623  -75.4971 C.2       10 UNK         0.4899 
     24 O         -73.0410   30.1103  -76.5541 O.2       10 UNK        -0.4839 
     25 CA        -71.4278   28.7546  -75.4220 C.3       9 UNK         0.0222 
     26 CB        -70.5719   29.1524  -74.1972 C.3       9 UNK        -0.1966 
     27 N         -71.7186   27.3217  -75.4319 N.am      9 UNK        -0.4218 
     28 C         -70.8122   26.3555  -75.6352 C.2       9 UNK         0.5020 
     29 O         -69.6120   26.5653  -75.8202 O.2       9 UNK        -0.5274 
     30 CA        -71.3232   24.9049  -75.6437 C.3       8 UNK         0.0270 
     31 CB        -71.7118   24.4423  -74.2292 C.3       8 UNK        -0.1976 
     32 N         -72.4441   24.7091  -76.5644 N.am      8 UNK        -0.4313 
     33 C         -72.3481   24.7710  -77.9009 C.2       8 UNK         0.5041 
     34 O         -71.2888   24.9391  -78.5068 O.2       8 UNK        -0.5577 
     35 CA        -73.6517   24.6255  -78.7043 C.3       7 UNK         0.0284 
     36 CB        -74.0045   23.1432  -78.9062 C.3       7 UNK        -0.1958 
     37 N         -74.7759   25.3276  -78.0818 N.am      7 UNK        -0.4454 
     38 C         -74.8689   26.6620  -77.9797 C.2       7 UNK         0.5089 
     39 O         -74.0692   27.4438  -78.4935 O.2       7 UNK        -0.5125 
     40 CA        -76.0338   27.2198  -77.1445 C.3       6 UNK         0.0408 
     41 CB        -77.3005   27.3662  -78.0010 C.3       6 UNK        -0.1791 
     42 N         -76.3361   26.4006  -75.9709 N.am      6 UNK        -0.4762 
     43 C         -75.5091   26.2008  -74.9357 C.2       6 UNK         0.5007 
     44 O         -74.3834   26.6895  -74.8479 O.2       6 UNK        -0.5032 
     45 CA        -75.9996   25.2400  -73.8392 C.3       5 UNK         0.0783 
     46 C46       -76.9890   25.9586  -72.8943 C.3       11 UNK        -0.0857 
     47 S47       -77.5456   24.9086  -71.5101 S.3       11 UNK        -0.2512 
     48 C48       -77.0219   25.8811  -70.0597 C.3       11 UNK         0.0225 
     49 N         -76.5601   24.0210  -74.4282 N.am      5 UNK        -0.4615 
     50 C         -75.8535   23.1070  -75.1056 C.2       4 UNK         0.5053 
     51 O         -74.6380   23.1779  -75.2835 O.2       4 UNK        -0.5105 
     52 CA        -76.6400   21.9341  -75.7148 C.3       4 UNK         0.0263 
     53 CB        -76.8559   20.8291  -74.6688 C.3       4 UNK        -0.1981 
     54 N         -77.9326   22.3457  -76.2686 N.am      4 UNK        -0.4224 
     55 C         -78.0784   23.1441  -77.3364 C.2       3 UNK         0.4895 
     56 O         -77.1387   23.5780  -78.0015 O.2       3 UNK        -0.5091 
     57 CA        -79.5140   23.5753  -77.6888 C.3       3 UNK         0.0250 
     58 CB        -80.2074   22.5035  -78.5448 C.3       3 UNK        -0.1996 
     59 N         -80.3434   23.8878  -76.5167 N.am      3 UNK        -0.4254 
     60 C         -80.0364   24.8171  -75.6007 C.2       2 UNK         0.5004 
     61 O         -79.0025   25.4854  -75.6388 O.2       2 UNK        -0.5226 
     62 CA        -81.0139   24.9832  -74.4234 C.3       2 UNK         0.0269 
     63 CB        -80.8957   23.7953  -73.4531 C.3       2 UNK        -0.1926 
     64 N         -80.7589   26.2191  -73.6788 N.am      2 UNK        -0.4687 
     65 C         -81.0237   27.4501  -74.1354 C.2       1 UNK         0.5165 
     66 O         -81.6322   27.6740  -75.1864 O.2       1 UNK        -0.5079 
     67 H67       -78.1708   30.4142  -76.6097 H         1 UNK         0.0900 
     68 H68       -77.6395   31.3782  -75.2300 H         1 UNK         0.0900 
     69 H69       -79.3107   31.4827  -75.7884 H         1 UNK         0.0900 
     70 H70       -80.6575   30.4558  -74.3101 H         1 UNK         0.2959 
     71 H71       -79.7392   28.2808  -72.6210 H         1 UNK         0.1079 
     72 H72       -81.3946   30.1096  -71.8928 H         1 UNK         0.0837 
     73 H73       -82.5874   29.3833  -72.9292 H         1 UNK         0.0837 
     74 H74       -81.4824   28.1153  -68.6934 H         1 UNK         0.0685 
     75 H75       -81.5233   29.7068  -69.4099 H         1 UNK         0.0685 
     76 H76       -79.6543   26.4428  -69.6245 H         1 UNK         0.1434 
     77 H77       -75.8879   28.3430  -70.4040 H         1 UNK         0.1329 
     78 H78       -79.4457   30.7054  -70.0576 H         1 UNK         0.1335 
     79 H79       -77.2423   31.7659  -69.9886 H         1 UNK         0.0680 
     80 H80       -75.7736   30.8313  -70.0545 H         1 UNK         0.0680 
     81 H81       -74.5329   30.1924  -72.0057 H         1 UNK         0.1032 
     82 H82       -75.6880   29.1786  -72.8317 H         1 UNK         0.1032 
     83 H83       -75.3306   30.2710  -74.9398 H         1 UNK         0.0461 
     84 H84       -72.4625   31.8810  -73.4141 H         1 UNK         0.3453 
     85 H85       -72.8878   33.4686  -74.0003 H         1 UNK         0.3453 
     86 H86       -73.1181   29.1347  -73.5588 H         1 UNK         0.2984 
     87 H87       -70.8574   28.9881  -76.3235 H         1 UNK         0.0554 
     88 H88       -69.5615   28.7506  -74.2704 H         1 UNK         0.0847 
     89 H89       -70.9996   28.7927  -73.2611 H         1 UNK         0.0847 
     90 H90       -70.4732   30.2361  -74.1222 H         1 UNK         0.0847 
     91 H91       -72.6984   27.0640  -75.2973 H         1 UNK         0.3141 
     92 H92       -70.5027   24.2694  -75.9839 H         1 UNK         0.0743 
     93 H93       -70.8780   24.5647  -73.5367 H         1 UNK         0.0784 
     94 H94       -71.9875   23.3875  -74.2209 H         1 UNK         0.0784 
     95 H95       -72.5529   25.0084  -73.8296 H         1 UNK         0.0784 
     96 H96       -73.3452   24.4941  -76.1490 H         1 UNK         0.3213 
     97 H97       -73.4846   25.0693  -79.6882 H         1 UNK         0.0855 
     98 H98       -74.2134   22.6438  -77.9600 H         1 UNK         0.0814 
     99 H99       -73.1823   22.6082  -79.3833 H         1 UNK         0.0814 
    100 H100      -74.8798   23.0280  -79.5456 H         1 UNK         0.0814 
    101 H101      -75.5293   24.7561  -77.7115 H         1 UNK         0.3105 
    102 H102      -75.7456   28.2108  -76.7868 H         1 UNK         0.0547 
    103 H103      -78.1158   27.8064  -77.4262 H         1 UNK         0.0837 
    104 H104      -77.1190   28.0129  -78.8602 H         1 UNK         0.0837 
    105 H105      -77.6431   26.4028  -78.3802 H         1 UNK         0.0837 
    106 H106      -77.2726   26.0003  -75.9202 H         1 UNK         0.3020 
    107 H107      -75.1248   24.9493  -73.2530 H         1 UNK         0.1245 
    108 H108      -77.8731   26.2926  -73.4370 H         1 UNK         0.0781 
    109 H109      -76.5270   26.8650  -72.5029 H         1 UNK         0.0781 
    110 H110      -77.2706   25.3284  -69.1527 H         1 UNK         0.0836 
    111 H111      -75.9354   25.9820  -70.0690 H         1 UNK         0.0836 
    112 H112      -77.5622   23.9232  -74.3701 H         1 UNK         0.3022 
    113 H113      -76.0409   21.5210  -76.5292 H         1 UNK         0.0747 
    114 H114      -77.3430   19.9576  -75.1068 H         1 UNK         0.0793 
    115 H115      -75.9034   20.4926  -74.2566 H         1 UNK         0.0793 
    116 H116      -77.4683   21.1735  -73.8343 H         1 UNK         0.0793 
    117 H117      -78.7617   22.0347  -75.7843 H         1 UNK         0.3047 
    118 H118      -79.4384   24.4880  -78.2838 H         1 UNK         0.0822 
    119 H119      -81.1829   22.8434  -78.8931 H         1 UNK         0.0807 
    120 H120      -80.3521   21.5738  -77.9932 H         1 UNK         0.0807 
    121 H121      -79.6144   22.2684  -79.4300 H         1 UNK         0.0807 
    122 H122      -81.2041   23.3681  -76.4189 H         1 UNK         0.2946 
    123 H123      -82.0300   25.0222  -74.8227 H         1 UNK         0.1144 
    124 H124      -81.5768   23.9049  -72.6088 H         1 UNK         0.0793 
    125 H125      -79.8852   23.6962  -73.0554 H         1 UNK         0.0793 
    126 H126      -81.1459   22.8545  -73.9447 H         1 UNK         0.0793 
    127 H127      -80.2528   26.1229  -72.8105 H         1 UNK         0.2896 
@<TRIPOS>BOND
     1    1    2 1    
     2    1   67 1    
     3    1   68 1    
     4    1   69 1    
     5    2    3 2    
     6    2    4 am   BACKBONE|DICT|INTERRES
     7    4    5 1    
     8    4   70 1    
     9    5    6 1    
    10    5   65 1    
    11    5   71 1    
    12    6    7 1    
    13    6   72 1    
    14    6   73 1    
    15    7    8 1    
    16    8    9 1    
    17    8   74 1    
    18    8   75 1    
    19    9   10 ar   
    20    9   14 ar   
    21   10   11 ar   
    22   10   76 1    
    23   11   12 ar   
    24   11   48 1    
    25   12   13 ar   
    26   12   77 1    
    27   13   14 ar   
    28   13   15 1    
    29   14   78 1    
    30   15   16 1    
    31   15   79 1    
    32   15   80 1    
    33   16   17 1    
    34   17   18 1    
    35   17   81 1    
    36   17   82 1    
    37   18   19 1    
    38   18   22 1    
    39   18   83 1    
    40   19   20 am   BACKBONE|DICT|INTERRES
    41   19   21 2    
    42   20   84 1    
    43   20   85 1    
    44   22   23 am   BACKBONE|DICT|INTERRES
    45   22   86 1    
    46   23   24 2    
    47   23   25 1    
    48   25   26 1    
    49   25   27 1    
    50   25   87 1    
    51   26   88 1    
    52   26   89 1    
    53   26   90 1    
    54   27   28 am   BACKBONE|DICT|INTERRES
    55   27   91 1    
    56   28   29 2    
    57   28   30 1    
    58   30   31 1    
    59   30   32 1    
    60   30   92 1    
    61   31   93 1    
    62   31   94 1    
    63   31   95 1    
    64   32   33 am   BACKBONE|DICT|INTERRES
    65   32   96 1    
    66   33   34 2    
    67   33   35 1    
    68   35   36 1    
    69   35   37 1    
    70   35   97 1    
    71   36   98 1    
    72   36   99 1    
    73   36  100 1    
    74   37   38 am   BACKBONE|DICT|INTERRES
    75   37  101 1    
    76   38   39 2    
    77   38   40 1    
    78   40   41 1    
    79   40   42 1    
    80   40  102 1    
    81   41  103 1    
    82   41  104 1    
    83   41  105 1    
    84   42   43 am   BACKBONE|DICT|INTERRES
    85   42  106 1    
    86   43   44 2    
    87   43   45 1    
    88   45   46 1    
    89   45   49 1    
    90   45  107 1    
    91   46   47 1    
    92   46  108 1    
    93   46  109 1    
    94   47   48 1    
    95   48  110 1    
    96   48  111 1    
    97   49   50 am   BACKBONE|DICT|INTERRES
    98   49  112 1    
    99   50   51 2    
   100   50   52 1    
   101   52   53 1    
   102   52   54 1    
   103   52  113 1    
   104   53  114 1    
   105   53  115 1    
   106   53  116 1    
   107   54   55 am   BACKBONE|DICT|INTERRES
   108   54  117 1    
   109   55   56 2    
   110   55   57 1    
   111   57   58 1    
   112   57   59 1    
   113   57  118 1    
   114   58  119 1    
   115   58  120 1    
   116   58  121 1    
   117   59   60 am   BACKBONE|DICT|INTERRES
   118   59  122 1    
   119   60   61 2    
   120   60   62 1    
   121   62   63 1    
   122   62   64 1    
   123   62  123 1    
   124   63  124 1    
   125   63  125 1    
   126   63  126 1    
   127   64   65 am   BACKBONE|DICT|INTERRES
   128   64  127 1    
   129   65   66 2    
@<TRIPOS>SUBSTRUCTURE
     1 UNK         1 GROUP             0       ****    0 ROOT    
