@<TRIPOS>MOLECULE
3R135
127   129    1
SMALL
USER_CHARGES


@<TRIPOS>ATOM
      1 CA        -84.9105   30.3983  -74.6700 C.3       0 UNK        -0.1998 
      2 C         -83.5257   29.8841  -75.0352 C.2       0 UNK         0.4909 
      3 O         -83.0540   30.1377  -76.1443 O.2       0 UNK        -0.5240 
      4 N         -82.8737   29.1760  -74.1055 N.am      1 UNK        -0.4739 
      5 CA        -81.5621   28.5462  -74.2778 C.3       1 UNK         0.0864 
      6 C6        -80.6613   28.7403  -73.0254 C.3       11 UNK        -0.0881 
      7 S7        -81.4054   28.1810  -71.4500 S.3       11 UNK        -0.2682 
      8 C8        -80.5190   29.2228  -70.2424 C.3       11 UNK         0.0289 
      9 C9        -79.0081   29.0409  -70.3191 C.ar      11 UNK        -0.0687 
     10 C10       -78.4441   27.7727  -70.1563 C.ar      11 UNK        -0.0823 
     11 C11       -77.0660   27.5850  -70.2911 C.ar      11 UNK        -0.0830 
     12 C12       -76.2409   28.6884  -70.5274 C.ar      11 UNK        -0.1021 
     13 C13       -76.7891   29.9656  -70.6731 C.ar      11 UNK        -0.0753 
     14 C14       -78.1744   30.1347  -70.5745 C.ar      11 UNK        -0.0933 
     15 C15       -75.8889   31.1644  -70.9344 C.3       11 UNK         0.0166 
     16 S16       -75.5469   31.3863  -72.7116 S.3       11 UNK        -0.2615 
     17 C17       -74.0445   30.3711  -72.9540 C.3       11 UNK        -0.0865 
     18 CA        -72.7906   31.2119  -73.3515 C.3       10 UNK         0.0862 
     19 C         -72.0707   31.8801  -72.1390 C.2       10 UNK         0.5551 
     20 N         -72.7911   32.6518  -71.3383 N.am      10 UNK        -0.7319 
     21 O         -70.8661   31.7432  -71.9310 O.2       10 UNK        -0.5018 
     22 N         -71.8709   30.4773  -74.2378 N.am      10 UNK        -0.4509 
     23 C         -71.2648   29.3151  -73.9646 C.2       10 UNK         0.4899 
     24 O         -71.4739   28.6380  -72.9551 O.2       10 UNK        -0.4839 
     25 CA        -70.2120   28.8432  -74.9821 C.3       9 UNK         0.0222 
     26 CB        -68.7931   29.1116  -74.4541 C.3       9 UNK        -0.1966 
     27 N         -70.3682   27.4138  -75.2520 N.am      9 UNK        -0.4218 
     28 C         -71.3320   26.9036  -76.0286 C.2       9 UNK         0.5020 
     29 O         -72.0810   27.6017  -76.7158 O.2       9 UNK        -0.5274 
     30 CA        -71.4708   25.3667  -76.0152 C.3       8 UNK         0.0270 
     31 CB        -71.7456   24.8465  -74.5913 C.3       8 UNK        -0.1976 
     32 N         -72.5493   24.9016  -76.8891 N.am      8 UNK        -0.4313 
     33 C         -72.4954   24.8330  -78.2251 C.2       8 UNK         0.5041 
     34 O         -71.4740   25.0359  -78.8845 O.2       8 UNK        -0.5577 
     35 CA        -73.8065   24.4800  -78.9503 C.3       7 UNK         0.0284 
     36 CB        -74.0084   22.9570  -79.0037 C.3       7 UNK        -0.1958 
     37 N         -74.9752   25.1114  -78.3301 N.am      7 UNK        -0.4454 
     38 C         -75.2548   26.4218  -78.3984 C.2       7 UNK         0.5089 
     39 O         -74.6200   27.2224  -79.0857 O.2       7 UNK        -0.5125 
     40 CA        -76.4474   26.9305  -77.5680 C.3       6 UNK         0.0408 
     41 CB        -77.7532   26.8271  -78.3715 C.3       6 UNK        -0.1791 
     42 N         -76.6017   26.2201  -76.2976 N.am      6 UNK        -0.4762 
     43 C         -75.7694   26.3242  -75.2513 C.2       6 UNK         0.5007 
     44 O         -74.8165   27.0986  -75.2070 O.2       6 UNK        -0.5032 
     45 CA        -76.0332   25.3934  -74.0526 C.3       5 UNK         0.0783 
     46 C46       -76.9997   26.0616  -73.0521 C.3       11 UNK        -0.0857 
     47 S47       -77.2009   25.0886  -71.5174 S.3       11 UNK        -0.2512 
     48 C48       -76.4739   26.1825  -70.2479 C.3       11 UNK         0.0225 
     49 N         -76.5067   24.0757  -74.4826 N.am      5 UNK        -0.4615 
     50 C         -75.7599   23.1724  -75.1282 C.2       4 UNK         0.5053 
     51 O         -74.5794   23.3484  -75.4250 O.2       4 UNK        -0.5105 
     52 CA        -76.4641   21.8718  -75.5473 C.3       4 UNK         0.0263 
     53 CB        -76.5164   20.8819  -74.3729 C.3       4 UNK        -0.1981 
     54 N         -77.8186   22.1079  -76.0549 N.am      4 UNK        -0.4224 
     55 C         -78.0915   22.7696  -77.1887 C.2       3 UNK         0.4895 
     56 O         -77.2292   23.2084  -77.9493 O.2       3 UNK        -0.5091 
     57 CA        -79.5756   23.0257  -77.5039 C.3       3 UNK         0.0250 
     58 CB        -80.1985   21.8059  -78.2013 C.3       3 UNK        -0.1996 
     59 N         -80.3817   23.3913  -76.3315 N.am      3 UNK        -0.4254 
     60 C         -80.1537   24.4599  -75.5550 C.2       2 UNK         0.5004 
     61 O         -79.1905   25.2148  -75.6997 O.2       2 UNK        -0.5226 
     62 CA        -81.1347   24.6994  -74.3955 C.3       2 UNK         0.0269 
     63 CB        -80.7240   23.8705  -73.1680 C.3       2 UNK        -0.1926 
     64 N         -81.1756   26.1148  -74.0181 N.am      2 UNK        -0.4687 
     65 C         -81.7425   27.0839  -74.7497 C.2       1 UNK         0.5165 
     66 O         -82.3905   26.8546  -75.7739 O.2       1 UNK        -0.5079 
     67 H67       -85.1962   30.1171  -73.6564 H         1 UNK         0.0900 
     68 H68       -85.6537   29.9933  -75.3563 H         1 UNK         0.0900 
     69 H69       -84.9379   31.4854  -74.7401 H         1 UNK         0.0900 
     70 H70       -83.3184   28.9900  -73.2172 H         1 UNK         0.2959 
     71 H71       -81.0408   29.0383  -75.1023 H         1 UNK         0.1079 
     72 H72       -79.6923   28.2551  -73.1586 H         1 UNK         0.0837 
     73 H73       -80.4334   29.8032  -72.9285 H         1 UNK         0.0837 
     74 H74       -80.7959   30.2656  -70.4056 H         1 UNK         0.0685 
     75 H75       -80.8575   28.9666  -69.2377 H         1 UNK         0.0685 
     76 H76       -79.0856   26.9204  -69.9776 H         1 UNK         0.1434 
     77 H77       -75.1733   28.5491  -70.6219 H         1 UNK         0.1329 
     78 H78       -78.6026   31.1196  -70.7022 H         1 UNK         0.1335 
     79 H79       -76.3666   32.0707  -70.5590 H         1 UNK         0.0680 
     80 H80       -74.9575   31.0641  -70.3754 H         1 UNK         0.0680 
     81 H81       -74.2814   29.6595  -73.7473 H         1 UNK         0.1032 
     82 H82       -73.8369   29.7609  -72.0745 H         1 UNK         0.1032 
     83 H83       -73.1278   32.0414  -73.9744 H         1 UNK         0.0461 
     84 H84       -73.7739   32.7914  -71.5163 H         1 UNK         0.3453 
     85 H85       -72.3453   33.1083  -70.5580 H         1 UNK         0.3453 
     86 H86       -71.6093   30.9652  -75.0825 H         1 UNK         0.2984 
     87 H87       -70.3377   29.3953  -75.9163 H         1 UNK         0.0554 
     88 H88       -68.0351   28.8070  -75.1760 H         1 UNK         0.0847 
     89 H89       -68.6012   28.5818  -73.5200 H         1 UNK         0.0847 
     90 H90       -68.6458   30.1748  -74.2589 H         1 UNK         0.0847 
     91 H91       -69.8112   26.7860  -74.6908 H         1 UNK         0.3141 
     92 H92       -70.5300   24.9402  -76.3691 H         1 UNK         0.0743 
     93 H93       -72.6400   25.3033  -74.1659 H         1 UNK         0.0784 
     94 H94       -71.8888   23.7656  -74.5849 H         1 UNK         0.0784 
     95 H95       -70.9171   25.0608  -73.9158 H         1 UNK         0.0784 
     96 H96       -73.4245   24.6655  -76.4332 H         1 UNK         0.3213 
     97 H97       -73.7272   24.8467  -79.9761 H         1 UNK         0.0855 
     98 H98       -74.1090   22.5259  -78.0073 H         1 UNK         0.0814 
     99 H99       -73.1612   22.4685  -79.4869 H         1 UNK         0.0814 
    100 H100      -74.9014   22.6955  -79.5718 H         1 UNK         0.0814 
    101 H101      -75.6126   24.5064  -77.8233 H         1 UNK         0.3105 
    102 H102      -76.2706   27.9844  -77.3431 H         1 UNK         0.0547 
    103 H103      -77.6834   27.3904  -79.3029 H         1 UNK         0.0837 
    104 H104      -77.9858   25.7942  -78.6316 H         1 UNK         0.0837 
    105 H105      -78.5976   27.2281  -77.8106 H         1 UNK         0.0837 
    106 H106      -77.4251   25.6295  -76.1994 H         1 UNK         0.3020 
    107 H107      -75.0744   25.2508  -73.5488 H         1 UNK         0.1245 
    108 H108      -77.9862   26.1964  -73.4983 H         1 UNK         0.0781 
    109 H109      -76.6446   27.0646  -72.8146 H         1 UNK         0.0781 
    110 H110      -75.3923   26.2109  -70.3888 H         1 UNK         0.0836 
    111 H111      -76.6462   25.7494  -69.2617 H         1 UNK         0.0836 
    112 H112      -77.4793   23.8741  -74.3081 H         1 UNK         0.3022 
    113 H113      -75.8765   21.4201  -76.3495 H         1 UNK         0.0747 
    114 H114      -76.9445   19.9268  -74.6779 H         1 UNK         0.0793 
    115 H115      -75.5148   20.6789  -73.9910 H         1 UNK         0.0793 
    116 H116      -77.1096   21.2669  -73.5422 H         1 UNK         0.0793 
    117 H117      -78.5884   21.7782  -75.4914 H         1 UNK         0.3047 
    118 H118      -79.6155   23.8679  -78.1980 H         1 UNK         0.0822 
    119 H119      -81.2161   22.0145  -78.5324 H         1 UNK         0.0807 
    120 H120      -80.2299   20.9349  -77.5456 H         1 UNK         0.0807 
    121 H121      -79.6240   21.5272  -79.0861 H         1 UNK         0.0807 
    122 H122      -81.1848   22.8098  -76.1379 H         1 UNK         0.2946 
    123 H123      -82.1350   24.3962  -74.7134 H         1 UNK         0.1144 
    124 H124      -81.4163   24.0204  -72.3392 H         1 UNK         0.0793 
    125 H125      -79.7252   24.1331  -72.8194 H         1 UNK         0.0793 
    126 H126      -80.7204   22.8037  -73.3951 H         1 UNK         0.0793 
    127 H127      -80.6780   26.3781  -73.1793 H         1 UNK         0.2896 
@<TRIPOS>BOND
     1    1    2 1    
     2    1   67 1    
     3    1   68 1    
     4    1   69 1    
     5    2    3 2    
     6    2    4 am   BACKBONE|DICT|INTERRES
     7    4    5 1    
     8    4   70 1    
     9    5    6 1    
    10    5   65 1    
    11    5   71 1    
    12    6    7 1    
    13    6   72 1    
    14    6   73 1    
    15    7    8 1    
    16    8    9 1    
    17    8   74 1    
    18    8   75 1    
    19    9   10 ar   
    20    9   14 ar   
    21   10   11 ar   
    22   10   76 1    
    23   11   12 ar   
    24   11   48 1    
    25   12   13 ar   
    26   12   77 1    
    27   13   14 ar   
    28   13   15 1    
    29   14   78 1    
    30   15   16 1    
    31   15   79 1    
    32   15   80 1    
    33   16   17 1    
    34   17   18 1    
    35   17   81 1    
    36   17   82 1    
    37   18   19 1    
    38   18   22 1    
    39   18   83 1    
    40   19   20 am   BACKBONE|DICT|INTERRES
    41   19   21 2    
    42   20   84 1    
    43   20   85 1    
    44   22   23 am   BACKBONE|DICT|INTERRES
    45   22   86 1    
    46   23   24 2    
    47   23   25 1    
    48   25   26 1    
    49   25   27 1    
    50   25   87 1    
    51   26   88 1    
    52   26   89 1    
    53   26   90 1    
    54   27   28 am   BACKBONE|DICT|INTERRES
    55   27   91 1    
    56   28   29 2    
    57   28   30 1    
    58   30   31 1    
    59   30   32 1    
    60   30   92 1    
    61   31   93 1    
    62   31   94 1    
    63   31   95 1    
    64   32   33 am   BACKBONE|DICT|INTERRES
    65   32   96 1    
    66   33   34 2    
    67   33   35 1    
    68   35   36 1    
    69   35   37 1    
    70   35   97 1    
    71   36   98 1    
    72   36   99 1    
    73   36  100 1    
    74   37   38 am   BACKBONE|DICT|INTERRES
    75   37  101 1    
    76   38   39 2    
    77   38   40 1    
    78   40   41 1    
    79   40   42 1    
    80   40  102 1    
    81   41  103 1    
    82   41  104 1    
    83   41  105 1    
    84   42   43 am   BACKBONE|DICT|INTERRES
    85   42  106 1    
    86   43   44 2    
    87   43   45 1    
    88   45   46 1    
    89   45   49 1    
    90   45  107 1    
    91   46   47 1    
    92   46  108 1    
    93   46  109 1    
    94   47   48 1    
    95   48  110 1    
    96   48  111 1    
    97   49   50 am   BACKBONE|DICT|INTERRES
    98   49  112 1    
    99   50   51 2    
   100   50   52 1    
   101   52   53 1    
   102   52   54 1    
   103   52  113 1    
   104   53  114 1    
   105   53  115 1    
   106   53  116 1    
   107   54   55 am   BACKBONE|DICT|INTERRES
   108   54  117 1    
   109   55   56 2    
   110   55   57 1    
   111   57   58 1    
   112   57   59 1    
   113   57  118 1    
   114   58  119 1    
   115   58  120 1    
   116   58  121 1    
   117   59   60 am   BACKBONE|DICT|INTERRES
   118   59  122 1    
   119   60   61 2    
   120   60   62 1    
   121   62   63 1    
   122   62   64 1    
   123   62  123 1    
   124   63  124 1    
   125   63  125 1    
   126   63  126 1    
   127   64   65 am   BACKBONE|DICT|INTERRES
   128   64  127 1    
   129   65   66 2    
@<TRIPOS>SUBSTRUCTURE
     1 UNK         1 GROUP             0       ****    0 ROOT    
