@<TRIPOS>MOLECULE
3R135
127   129    1
SMALL
USER_CHARGES


@<TRIPOS>ATOM
      1 CA        -84.7554   27.0311  -70.4205 C.3       0 UNK        -0.1998 
      2 C         -84.6378   27.0432  -71.9371 C.2       0 UNK         0.4909 
      3 O         -85.3864   26.3393  -72.6156 O.2       0 UNK        -0.5240 
      4 N         -83.7046   27.8400  -72.4738 N.am      1 UNK        -0.4739 
      5 CA        -83.4187   27.9603  -73.9099 C.3       1 UNK         0.0864 
      6 C6        -82.6117   29.2446  -74.2396 C.3       11 UNK        -0.0881 
      7 S7        -81.1629   29.5260  -73.1606 S.3       11 UNK        -0.2682 
      8 C8        -79.8141   28.9358  -74.2253 C.3       11 UNK         0.0289 
      9 C9        -78.4903   28.9007  -73.4778 C.ar      11 UNK        -0.0687 
     10 C10       -78.2951   27.9720  -72.4530 C.ar      11 UNK        -0.0823 
     11 C11       -77.0746   27.9054  -71.7757 C.ar      11 UNK        -0.0830 
     12 C12       -76.0374   28.7667  -72.1451 C.ar      11 UNK        -0.1021 
     13 C13       -76.2214   29.7136  -73.1610 C.ar      11 UNK        -0.0753 
     14 C14       -77.4543   29.7744  -73.8204 C.ar      11 UNK        -0.0933 
     15 C15       -75.0936   30.6478  -73.5932 C.3       11 UNK         0.0166 
     16 S16       -74.1199   31.3118  -72.1994 S.3       11 UNK        -0.2615 
     17 C17       -73.0588   32.5415  -73.0388 C.3       11 UNK        -0.0865 
     18 CA        -71.5680   32.1453  -73.2626 C.3       10 UNK         0.0862 
     19 C         -70.7766   31.8110  -71.9594 C.2       10 UNK         0.5551 
     20 N         -69.8325   30.8792  -71.9739 N.am      10 UNK        -0.7319 
     21 O         -70.9802   32.4507  -70.9299 O.2       10 UNK        -0.5018 
     22 N         -71.3705   31.2700  -74.4346 N.am      10 UNK        -0.4509 
     23 C         -71.5463   29.9456  -74.5334 C.2       10 UNK         0.4899 
     24 O         -71.8702   29.2156  -73.5962 O.2       10 UNK        -0.4839 
     25 CA        -71.3570   29.3641  -75.9493 C.3       9 UNK         0.0222 
     26 CB        -70.0458   29.8310  -76.6226 C.3       9 UNK        -0.1966 
     27 N         -71.4894   27.9034  -75.9967 N.am      9 UNK        -0.4218 
     28 C         -70.6562   26.9773  -75.4929 C.2       9 UNK         0.5020 
     29 O         -69.5847   27.2426  -74.9443 O.2       9 UNK        -0.5274 
     30 CA        -71.0669   25.4955  -75.6210 C.3       8 UNK         0.0270 
     31 CB        -71.2148   24.8452  -74.2340 C.3       8 UNK        -0.1976 
     32 N         -72.3083   25.3073  -76.3792 N.am      8 UNK        -0.4313 
     33 C         -72.3721   25.2252  -77.7172 C.2       8 UNK         0.5041 
     34 O         -71.3763   25.2198  -78.4422 O.2       8 UNK        -0.5577 
     35 CA        -73.7650   25.1575  -78.3773 C.3       7 UNK         0.0284 
     36 CB        -74.0977   23.7101  -78.7743 C.3       7 UNK        -0.1958 
     37 N         -74.8593   25.6912  -77.5618 N.am      7 UNK        -0.4454 
     38 C         -74.9498   26.9443  -77.0949 C.2       7 UNK         0.5089 
     39 O         -74.1305   27.8288  -77.3424 O.2       7 UNK        -0.5125 
     40 CA        -76.1121   27.2380  -76.1302 C.3       6 UNK         0.0408 
     41 CB        -77.3595   27.6610  -76.9191 C.3       6 UNK        -0.1791 
     42 N         -76.4379   26.1153  -75.2394 N.am      6 UNK        -0.4762 
     43 C         -75.5669   25.5145  -74.4107 C.2       6 UNK         0.5007 
     44 O         -74.3820   25.8349  -74.3237 O.2       6 UNK        -0.5032 
     45 CA        -76.0723   24.2958  -73.6144 C.3       5 UNK         0.0783 
     46 C46       -76.8810   24.6782  -72.3541 C.3       11 UNK        -0.0857 
     47 S47       -75.8599   25.4900  -71.0789 S.3       11 UNK        -0.2512 
     48 C48       -76.8887   26.9229  -70.6268 C.3       11 UNK         0.0225 
     49 N         -76.8413   23.4171  -74.4934 N.am      5 UNK        -0.4615 
     50 C         -76.2978   22.5222  -75.3287 C.2       4 UNK         0.5053 
     51 O         -75.0948   22.2664  -75.3688 O.2       4 UNK        -0.5105 
     52 CA        -77.2521   21.7972  -76.2950 C.3       4 UNK         0.0263 
     53 CB        -77.7038   20.4552  -75.6972 C.3       4 UNK        -0.1981 
     54 N         -78.4317   22.5922  -76.6483 N.am      4 UNK        -0.4224 
     55 C         -78.3974   23.7261  -77.3630 C.2       3 UNK         0.4895 
     56 O         -77.3690   24.1991  -77.8457 O.2       3 UNK        -0.5091 
     57 CA        -79.7265   24.4840  -77.5256 C.3       3 UNK         0.0250 
     58 CB        -80.4776   23.9904  -78.7720 C.3       3 UNK        -0.1996 
     59 N         -80.6083   24.3999  -76.3550 N.am      3 UNK        -0.4254 
     60 C         -80.3002   24.8398  -75.1268 C.2       2 UNK         0.5004 
     61 O         -79.2110   25.3359  -74.8313 O.2       2 UNK        -0.5226 
     62 CA        -81.3764   24.6720  -74.0401 C.3       2 UNK         0.0269 
     63 CB        -80.7809   24.0440  -72.7679 C.3       2 UNK        -0.1926 
     64 N         -82.0212   25.9390  -73.6875 N.am      2 UNK        -0.4687 
     65 C         -82.7686   26.6925  -74.5087 C.2       1 UNK         0.5165 
     66 O         -82.9841   26.4085  -75.6878 O.2       1 UNK        -0.5079 
     67 H67       -84.0375   27.7031  -69.9505 H         1 UNK         0.0900 
     68 H68       -84.5792   26.0258  -70.0388 H         1 UNK         0.0900 
     69 H69       -85.7560   27.3399  -70.1194 H         1 UNK         0.0900 
     70 H70       -83.1177   28.4036  -71.8737 H         1 UNK         0.2959 
     71 H71       -84.3824   28.0554  -74.4160 H         1 UNK         0.1079 
     72 H72       -82.3090   29.2635  -75.2887 H         1 UNK         0.0837 
     73 H73       -83.2664   30.1090  -74.1184 H         1 UNK         0.0837 
     74 H74       -80.0434   27.9332  -74.5855 H         1 UNK         0.0685 
     75 H75       -79.7467   29.5757  -75.1065 H         1 UNK         0.0685 
     76 H76       -79.1011   27.3028  -72.1851 H         1 UNK         0.1434 
     77 H77       -75.0855   28.6991  -71.6364 H         1 UNK         0.1329 
     78 H78       -77.6024   30.4909  -74.6167 H         1 UNK         0.1335 
     79 H79       -74.4363   30.1043  -74.2715 H         1 UNK         0.0680 
     80 H80       -75.5026   31.4865  -74.1586 H         1 UNK         0.0680 
     81 H81       -73.0960   33.4502  -72.4353 H         1 UNK         0.1032 
     82 H82       -73.5107   32.8234  -73.9906 H         1 UNK         0.1032 
     83 H83       -71.0846   33.0677  -73.5872 H         1 UNK         0.0461 
     84 H84       -69.3136   30.6852  -71.1323 H         1 UNK         0.3453 
     85 H85       -69.6829   30.3256  -72.8024 H         1 UNK         0.3453 
     86 H86       -71.0787   31.7574  -75.2691 H         1 UNK         0.2984 
     87 H87       -72.1870   29.7447  -76.5464 H         1 UNK         0.0554 
     88 H88       -69.8947   29.3336  -77.5807 H         1 UNK         0.0847 
     89 H89       -69.1731   29.6273  -76.0011 H         1 UNK         0.0847 
     90 H90       -70.0573   30.9024  -76.8234 H         1 UNK         0.0847 
     91 H91       -72.3600   27.5815  -76.4076 H         1 UNK         0.3141 
     92 H92       -70.2553   24.9814  -76.1401 H         1 UNK         0.0743 
     93 H93       -71.9257   25.3844  -73.6075 H         1 UNK         0.0784 
     94 H94       -71.5481   23.8101  -74.3102 H         1 UNK         0.0784 
     95 H95       -70.2611   24.8407  -73.7047 H         1 UNK         0.0784 
     96 H96       -73.1688   25.3451  -75.8389 H         1 UNK         0.3213 
     97 H97       -73.7174   25.7597  -79.2869 H         1 UNK         0.0855 
     98 H98       -74.1912   23.0651  -77.9000 H         1 UNK         0.0814 
     99 H99       -73.3176   23.2885  -79.4096 H         1 UNK         0.0814 
    100 H100      -75.0327   23.6557  -79.3324 H         1 UNK         0.0814 
    101 H101      -75.6323   25.0604  -77.3690 H         1 UNK         0.3105 
    102 H102      -75.8085   28.0695  -75.4930 H         1 UNK         0.0547 
    103 H103      -77.1904   28.6114  -77.4266 H         1 UNK         0.0837 
    104 H104      -77.6188   26.9296  -77.6837 H         1 UNK         0.0837 
    105 H105      -78.2237   27.7867  -76.2699 H         1 UNK         0.0837 
    106 H106      -77.4083   25.8106  -75.2213 H         1 UNK         0.3020 
    107 H107      -75.1879   23.7483  -73.2782 H         1 UNK         0.1245 
    108 H108      -77.3041   23.7800  -71.9017 H         1 UNK         0.0781 
    109 H109      -77.7321   25.3023  -72.6209 H         1 UNK         0.0781 
    110 H110      -76.4200   27.4390  -69.7877 H         1 UNK         0.0836 
    111 H111      -77.8537   26.5684  -70.2609 H         1 UNK         0.0836 
    112 H112      -77.8295   23.6178  -74.5661 H         1 UNK         0.3022 
    113 H113      -76.6962   21.5949  -77.2133 H         1 UNK         0.0747 
    114 H114      -78.3164   19.8925  -76.4019 H         1 UNK         0.0793 
    115 H115      -76.8444   19.8309  -75.4481 H         1 UNK         0.0793 
    116 H116      -78.2821   20.5932  -74.7827 H         1 UNK         0.0793 
    117 H117      -79.3230   22.2724  -76.2983 H         1 UNK         0.3047 
    118 H118      -79.4870   25.5381  -77.6721 H         1 UNK         0.0822 
    119 H119      -81.3714   24.5862  -78.9584 H         1 UNK         0.0807 
    120 H120      -80.7820   22.9475  -78.6759 H         1 UNK         0.0807 
    121 H121      -79.8495   24.0664  -79.6610 H         1 UNK         0.0807 
    122 H122      -81.5373   24.0384  -76.5189 H         1 UNK         0.2946 
    123 H123      -82.1484   23.9972  -74.4164 H         1 UNK         0.1144 
    124 H124      -80.0643   24.7088  -72.2849 H         1 UNK         0.0793 
    125 H125      -80.2608   23.1123  -72.9950 H         1 UNK         0.0793 
    126 H126      -81.5591   23.8096  -72.0414 H         1 UNK         0.0793 
    127 H127      -81.8967   26.2633  -72.7401 H         1 UNK         0.2896 
@<TRIPOS>BOND
     1    1    2 1    
     2    1   67 1    
     3    1   68 1    
     4    1   69 1    
     5    2    3 2    
     6    2    4 am   BACKBONE|DICT|INTERRES
     7    4    5 1    
     8    4   70 1    
     9    5    6 1    
    10    5   65 1    
    11    5   71 1    
    12    6    7 1    
    13    6   72 1    
    14    6   73 1    
    15    7    8 1    
    16    8    9 1    
    17    8   74 1    
    18    8   75 1    
    19    9   10 ar   
    20    9   14 ar   
    21   10   11 ar   
    22   10   76 1    
    23   11   12 ar   
    24   11   48 1    
    25   12   13 ar   
    26   12   77 1    
    27   13   14 ar   
    28   13   15 1    
    29   14   78 1    
    30   15   16 1    
    31   15   79 1    
    32   15   80 1    
    33   16   17 1    
    34   17   18 1    
    35   17   81 1    
    36   17   82 1    
    37   18   19 1    
    38   18   22 1    
    39   18   83 1    
    40   19   20 am   BACKBONE|DICT|INTERRES
    41   19   21 2    
    42   20   84 1    
    43   20   85 1    
    44   22   23 am   BACKBONE|DICT|INTERRES
    45   22   86 1    
    46   23   24 2    
    47   23   25 1    
    48   25   26 1    
    49   25   27 1    
    50   25   87 1    
    51   26   88 1    
    52   26   89 1    
    53   26   90 1    
    54   27   28 am   BACKBONE|DICT|INTERRES
    55   27   91 1    
    56   28   29 2    
    57   28   30 1    
    58   30   31 1    
    59   30   32 1    
    60   30   92 1    
    61   31   93 1    
    62   31   94 1    
    63   31   95 1    
    64   32   33 am   BACKBONE|DICT|INTERRES
    65   32   96 1    
    66   33   34 2    
    67   33   35 1    
    68   35   36 1    
    69   35   37 1    
    70   35   97 1    
    71   36   98 1    
    72   36   99 1    
    73   36  100 1    
    74   37   38 am   BACKBONE|DICT|INTERRES
    75   37  101 1    
    76   38   39 2    
    77   38   40 1    
    78   40   41 1    
    79   40   42 1    
    80   40  102 1    
    81   41  103 1    
    82   41  104 1    
    83   41  105 1    
    84   42   43 am   BACKBONE|DICT|INTERRES
    85   42  106 1    
    86   43   44 2    
    87   43   45 1    
    88   45   46 1    
    89   45   49 1    
    90   45  107 1    
    91   46   47 1    
    92   46  108 1    
    93   46  109 1    
    94   47   48 1    
    95   48  110 1    
    96   48  111 1    
    97   49   50 am   BACKBONE|DICT|INTERRES
    98   49  112 1    
    99   50   51 2    
   100   50   52 1    
   101   52   53 1    
   102   52   54 1    
   103   52  113 1    
   104   53  114 1    
   105   53  115 1    
   106   53  116 1    
   107   54   55 am   BACKBONE|DICT|INTERRES
   108   54  117 1    
   109   55   56 2    
   110   55   57 1    
   111   57   58 1    
   112   57   59 1    
   113   57  118 1    
   114   58  119 1    
   115   58  120 1    
   116   58  121 1    
   117   59   60 am   BACKBONE|DICT|INTERRES
   118   59  122 1    
   119   60   61 2    
   120   60   62 1    
   121   62   63 1    
   122   62   64 1    
   123   62  123 1    
   124   63  124 1    
   125   63  125 1    
   126   63  126 1    
   127   64   65 am   BACKBONE|DICT|INTERRES
   128   64  127 1    
   129   65   66 2    
@<TRIPOS>SUBSTRUCTURE
     1 UNK         1 GROUP             0       ****    0 ROOT    
