@<TRIPOS>MOLECULE
3R135
127   129    1
SMALL
USER_CHARGES


@<TRIPOS>ATOM
      1 CA        -76.7773   25.1353  -69.3417 C.3       0 UNK        -0.1998 
      2 C         -77.9567   24.7333  -68.4563 C.2       0 UNK         0.4909 
      3 O         -77.7448   24.4458  -67.2794 O.2       0 UNK        -0.5240 
      4 N         -79.2090   24.7064  -68.9406 N.am      1 UNK        -0.4739 
      5 CA        -79.6848   24.9564  -70.3103 C.3       1 UNK         0.0864 
      6 C6        -79.3157   26.3762  -70.8310 C.3       11 UNK        -0.0881 
      7 S7        -80.5931   27.1227  -71.9035 S.3       11 UNK        -0.2682 
      8 C8        -79.6775   27.4428  -73.4520 C.3       11 UNK         0.0289 
      9 C9        -78.9276   28.7750  -73.4705 C.ar      11 UNK        -0.0687 
     10 C10       -79.0665   29.6280  -74.5696 C.ar      11 UNK        -0.0823 
     11 C11       -78.3353   30.8195  -74.6534 C.ar      11 UNK        -0.0830 
     12 C12       -77.4876   31.1788  -73.6006 C.ar      11 UNK        -0.1021 
     13 C13       -77.3556   30.3496  -72.4842 C.ar      11 UNK        -0.0753 
     14 C14       -78.0672   29.1492  -72.4321 C.ar      11 UNK        -0.0933 
     15 C15       -76.4682   30.7490  -71.3147 C.3       11 UNK         0.0166 
     16 S16       -74.8057   30.0198  -71.4432 S.3       11 UNK        -0.2615 
     17 C17       -73.9067   31.2771  -72.4181 C.3       11 UNK        -0.0865 
     18 CA        -73.7358   30.8988  -73.9172 C.3       10 UNK         0.0862 
     19 C         -73.1062   32.0483  -74.7598 C.2       10 UNK         0.5551 
     20 N         -72.3081   31.7584  -75.7804 N.am      10 UNK        -0.7319 
     21 O         -73.3700   33.2218  -74.5094 O.2       10 UNK        -0.5018 
     22 N         -73.1190   29.5796  -74.1329 N.am      10 UNK        -0.4509 
     23 C         -71.9131   29.1586  -73.7289 C.2       10 UNK         0.4899 
     24 O         -71.1235   29.8422  -73.0756 O.2       10 UNK        -0.4839 
     25 CA        -71.5259   27.7293  -74.1628 C.3       9 UNK         0.0222 
     26 CB        -70.3308   27.1489  -73.3766 C.3       9 UNK        -0.1966 
     27 N         -72.6786   26.8193  -74.1628 N.am      9 UNK        -0.4218 
     28 C         -73.3832   26.3812  -73.1079 C.2       9 UNK         0.5020 
     29 O         -73.0605   26.5653  -71.9339 O.2       9 UNK        -0.5274 
     30 CA        -74.6936   25.6262  -73.4060 C.3       8 UNK         0.0270 
     31 CB        -75.8988   26.5337  -73.1189 C.3       8 UNK        -0.1976 
     32 N         -74.7902   25.1279  -74.7824 N.am      8 UNK        -0.4313 
     33 C         -74.1314   24.0576  -75.2490 C.2       8 UNK         0.5041 
     34 O         -73.4236   23.3303  -74.5520 O.2       8 UNK        -0.5577 
     35 CA        -74.2551   23.7692  -76.7546 C.3       7 UNK         0.0284 
     36 CB        -75.4952   22.9124  -77.0590 C.3       7 UNK        -0.1958 
     37 N         -74.2924   24.9993  -77.5496 N.am      7 UNK        -0.4454 
     38 C         -73.2242   25.7735  -77.7909 C.2       7 UNK         0.5089 
     39 O         -72.0858   25.5103  -77.4049 O.2       7 UNK        -0.5125 
     40 CA        -73.4677   27.0791  -78.5694 C.3       6 UNK         0.0408 
     41 CB        -73.3197   26.8385  -80.0798 C.3       6 UNK        -0.1791 
     42 N         -74.7742   27.6853  -78.2985 N.am      6 UNK        -0.4762 
     43 C         -75.1592   28.1708  -77.1086 C.2       6 UNK         0.5007 
     44 O         -74.4453   28.1652  -76.1086 O.2       6 UNK        -0.5032 
     45 CA        -76.6049   28.6885  -77.0042 C.3       5 UNK         0.0783 
     46 C46       -76.6757   30.1773  -77.4328 C.3       11 UNK        -0.0857 
     47 S47       -78.3752   30.8440  -77.4571 S.3       11 UNK        -0.2512 
     48 C48       -78.4689   31.7341  -75.8667 C.3       11 UNK         0.0225 
     49 N         -77.5409   27.8310  -77.7423 N.am      5 UNK        -0.4615 
     50 C         -77.7619   26.5380  -77.4768 C.2       4 UNK         0.5053 
     51 O         -77.1960   25.9107  -76.5759 O.2       4 UNK        -0.5105 
     52 CA        -78.7213   25.8130  -78.4224 C.3       4 UNK         0.0263 
     53 CB        -77.9980   25.4005  -79.7180 C.3       4 UNK        -0.1981 
     54 N         -79.2420   24.6285  -77.7507 N.am      4 UNK        -0.4224 
     55 C         -80.4162   24.0415  -78.0104 C.2       3 UNK         0.4895 
     56 O         -81.1900   24.4271  -78.8881 O.2       3 UNK        -0.5091 
     57 CA        -80.8036   22.8086  -77.1689 C.3       3 UNK         0.0250 
     58 CB        -80.6606   21.5263  -78.0062 C.3       3 UNK        -0.1996 
     59 N         -80.0413   22.6486  -75.9252 N.am      3 UNK        -0.4254 
     60 C         -80.1221   23.4635  -74.8657 C.2       2 UNK         0.5004 
     61 O         -80.8408   24.4658  -74.8215 O.2       2 UNK        -0.5226 
     62 CA        -79.2327   23.1064  -73.6681 C.3       2 UNK         0.0269 
     63 CB        -77.7375   23.1868  -74.0356 C.3       2 UNK        -0.1926 
     64 N         -79.5279   24.0310  -72.5779 N.am      2 UNK        -0.4687 
     65 C         -79.2993   23.8138  -71.2809 C.2       1 UNK         0.5165 
     66 O         -78.8107   22.7663  -70.8495 O.2       1 UNK        -0.5079 
     67 H67       -76.7483   26.2164  -69.4727 H         1 UNK         0.0900 
     68 H68       -75.8387   24.8367  -68.8753 H         1 UNK         0.0900 
     69 H69       -76.8111   24.6608  -70.3204 H         1 UNK         0.0900 
     70 H70       -79.9382   24.4112  -68.3063 H         1 UNK         0.2959 
     71 H71       -80.7719   24.9027  -70.2276 H         1 UNK         0.1079 
     72 H72       -79.1944   27.0616  -69.9905 H         1 UNK         0.0837 
     73 H73       -78.3535   26.3599  -71.3419 H         1 UNK         0.0837 
     74 H74       -78.9813   26.6313  -73.6587 H         1 UNK         0.0685 
     75 H75       -80.4045   27.4160  -74.2653 H         1 UNK         0.0685 
     76 H76       -79.7266   29.3518  -75.3805 H         1 UNK         0.1434 
     77 H77       -76.9329   32.1062  -73.6446 H         1 UNK         0.1329 
     78 H78       -77.9407   28.5158  -71.5697 H         1 UNK         0.1335 
     79 H79       -76.9219   30.4039  -70.3843 H         1 UNK         0.0680 
     80 H80       -76.4070   31.8346  -71.2275 H         1 UNK         0.0680 
     81 H81       -74.4234   32.2332  -72.3232 H         1 UNK         0.1032 
     82 H82       -72.9310   31.4294  -71.9549 H         1 UNK         0.1032 
     83 H83       -74.7393   30.7926  -74.3290 H         1 UNK         0.0461 
     84 H84       -71.9125   32.5064  -76.3277 H         1 UNK         0.3453 
     85 H85       -72.0955   30.7996  -76.0027 H         1 UNK         0.3453 
     86 H86       -73.6601   28.9540  -74.7268 H         1 UNK         0.2984 
     87 H87       -71.2175   27.8081  -75.2063 H         1 UNK         0.0554 
     88 H88       -69.4358   27.7534  -73.5285 H         1 UNK         0.0847 
     89 H89       -70.0961   26.1355  -73.7018 H         1 UNK         0.0847 
     90 H90       -70.5222   27.1230  -72.3037 H         1 UNK         0.0847 
     91 H91       -73.0779   26.6390  -75.0746 H         1 UNK         0.3141 
     92 H92       -74.7407   24.7736  -72.7251 H         1 UNK         0.0743 
     93 H93       -76.8326   25.9848  -73.2142 H         1 UNK         0.0784 
     94 H94       -75.8581   26.9294  -72.1030 H         1 UNK         0.0784 
     95 H95       -75.9354   27.3873  -73.7970 H         1 UNK         0.0784 
     96 H96       -75.3978   25.6367  -75.4155 H         1 UNK         0.3213 
     97 H97       -73.3732   23.1968  -77.0520 H         1 UNK         0.0855 
     98 H98       -76.4210   23.4269  -76.8066 H         1 UNK         0.0814 
     99 H99       -75.4734   21.9827  -76.4889 H         1 UNK         0.0814 
    100 H100      -75.5405   22.6425  -78.1141 H         1 UNK         0.0814 
    101 H101      -75.1982   25.3147  -77.8647 H         1 UNK         0.3105 
    102 H102      -72.7004   27.7929  -78.2617 H         1 UNK         0.0547 
    103 H103      -73.4010   27.7697  -80.6406 H         1 UNK         0.0837 
    104 H104      -72.3445   26.4080  -80.3120 H         1 UNK         0.0837 
    105 H105      -74.0771   26.1503  -80.4575 H         1 UNK         0.0837 
    106 H106      -75.4287   27.7248  -79.0665 H         1 UNK         0.3020 
    107 H107      -76.8767   28.6246  -75.9488 H         1 UNK         0.1245 
    108 H108      -76.2657   30.3065  -78.4365 H         1 UNK         0.0781 
    109 H109      -76.0586   30.7930  -76.7750 H         1 UNK         0.0781 
    110 H110      -79.4292   32.2480  -75.8097 H         1 UNK         0.0836 
    111 H111      -77.7034   32.5117  -75.8552 H         1 UNK         0.0836 
    112 H112      -78.0514   28.2774  -78.4909 H         1 UNK         0.3022 
    113 H113      -79.5466   26.4889  -78.6575 H         1 UNK         0.0747 
    114 H114      -77.1710   24.7178  -79.5182 H         1 UNK         0.0793 
    115 H115      -78.6786   24.9034  -80.4095 H         1 UNK         0.0793 
    116 H116      -77.5905   26.2679  -80.2386 H         1 UNK         0.0793 
    117 H117      -78.6806   24.3051  -76.9743 H         1 UNK         0.3047 
    118 H118      -81.8560   22.9254  -76.9008 H         1 UNK         0.0822 
    119 H119      -81.2457   21.5912  -78.9249 H         1 UNK         0.0807 
    120 H120      -81.0174   20.6525  -77.4606 H         1 UNK         0.0807 
    121 H121      -79.6239   21.3453  -78.2933 H         1 UNK         0.0807 
    122 H122      -79.4256   21.8492  -75.8786 H         1 UNK         0.2946 
    123 H123      -79.4817   22.0910  -73.3504 H         1 UNK         0.1144 
    124 H124      -77.0969   23.0655  -73.1620 H         1 UNK         0.0793 
    125 H125      -77.4919   24.1419  -74.4989 H         1 UNK         0.0793 
    126 H126      -77.4623   22.4015  -74.7393 H         1 UNK         0.0793 
    127 H127      -80.0163   24.8715  -72.8679 H         1 UNK         0.2896 
@<TRIPOS>BOND
     1    1    2 1    
     2    1   67 1    
     3    1   68 1    
     4    1   69 1    
     5    2    3 2    
     6    2    4 am   BACKBONE|DICT|INTERRES
     7    4    5 1    
     8    4   70 1    
     9    5    6 1    
    10    5   65 1    
    11    5   71 1    
    12    6    7 1    
    13    6   72 1    
    14    6   73 1    
    15    7    8 1    
    16    8    9 1    
    17    8   74 1    
    18    8   75 1    
    19    9   10 ar   
    20    9   14 ar   
    21   10   11 ar   
    22   10   76 1    
    23   11   12 ar   
    24   11   48 1    
    25   12   13 ar   
    26   12   77 1    
    27   13   14 ar   
    28   13   15 1    
    29   14   78 1    
    30   15   16 1    
    31   15   79 1    
    32   15   80 1    
    33   16   17 1    
    34   17   18 1    
    35   17   81 1    
    36   17   82 1    
    37   18   19 1    
    38   18   22 1    
    39   18   83 1    
    40   19   20 am   BACKBONE|DICT|INTERRES
    41   19   21 2    
    42   20   84 1    
    43   20   85 1    
    44   22   23 am   BACKBONE|DICT|INTERRES
    45   22   86 1    
    46   23   24 2    
    47   23   25 1    
    48   25   26 1    
    49   25   27 1    
    50   25   87 1    
    51   26   88 1    
    52   26   89 1    
    53   26   90 1    
    54   27   28 am   BACKBONE|DICT|INTERRES
    55   27   91 1    
    56   28   29 2    
    57   28   30 1    
    58   30   31 1    
    59   30   32 1    
    60   30   92 1    
    61   31   93 1    
    62   31   94 1    
    63   31   95 1    
    64   32   33 am   BACKBONE|DICT|INTERRES
    65   32   96 1    
    66   33   34 2    
    67   33   35 1    
    68   35   36 1    
    69   35   37 1    
    70   35   97 1    
    71   36   98 1    
    72   36   99 1    
    73   36  100 1    
    74   37   38 am   BACKBONE|DICT|INTERRES
    75   37  101 1    
    76   38   39 2    
    77   38   40 1    
    78   40   41 1    
    79   40   42 1    
    80   40  102 1    
    81   41  103 1    
    82   41  104 1    
    83   41  105 1    
    84   42   43 am   BACKBONE|DICT|INTERRES
    85   42  106 1    
    86   43   44 2    
    87   43   45 1    
    88   45   46 1    
    89   45   49 1    
    90   45  107 1    
    91   46   47 1    
    92   46  108 1    
    93   46  109 1    
    94   47   48 1    
    95   48  110 1    
    96   48  111 1    
    97   49   50 am   BACKBONE|DICT|INTERRES
    98   49  112 1    
    99   50   51 2    
   100   50   52 1    
   101   52   53 1    
   102   52   54 1    
   103   52  113 1    
   104   53  114 1    
   105   53  115 1    
   106   53  116 1    
   107   54   55 am   BACKBONE|DICT|INTERRES
   108   54  117 1    
   109   55   56 2    
   110   55   57 1    
   111   57   58 1    
   112   57   59 1    
   113   57  118 1    
   114   58  119 1    
   115   58  120 1    
   116   58  121 1    
   117   59   60 am   BACKBONE|DICT|INTERRES
   118   59  122 1    
   119   60   61 2    
   120   60   62 1    
   121   62   63 1    
   122   62   64 1    
   123   62  123 1    
   124   63  124 1    
   125   63  125 1    
   126   63  126 1    
   127   64   65 am   BACKBONE|DICT|INTERRES
   128   64  127 1    
   129   65   66 2    
@<TRIPOS>SUBSTRUCTURE
     1 UNK         1 GROUP             0       ****    0 ROOT    
