@<TRIPOS>MOLECULE
3R135
127   129    1
SMALL
USER_CHARGES


@<TRIPOS>ATOM
      1 CA        -82.4562   21.9627  -69.5281 C.3       0 UNK        -0.1998 
      2 C         -82.7406   23.0102  -70.5940 C.2       0 UNK         0.4909 
      3 O         -83.8732   23.1094  -71.0668 O.2       0 UNK        -0.5240 
      4 N         -81.7221   23.7956  -70.9709 N.am      1 UNK        -0.4739 
      5 CA        -81.8011   24.8331  -72.0062 C.3       1 UNK         0.0864 
      6 C6        -80.5468   25.7454  -71.9698 C.3       11 UNK        -0.0881 
      7 S7        -80.6618   27.1936  -73.0826 S.3       11 UNK        -0.2682 
      8 C8        -80.6238   28.5967  -71.9254 C.3       11 UNK         0.0289 
      9 C9        -79.3058   29.3494  -72.0200 C.ar      11 UNK        -0.0687 
     10 C10       -79.2115   30.4875  -72.8257 C.ar      11 UNK        -0.0823 
     11 C11       -78.0167   31.2088  -72.8995 C.ar      11 UNK        -0.0830 
     12 C12       -76.9162   30.7903  -72.1483 C.ar      11 UNK        -0.1021 
     13 C13       -76.9795   29.6257  -71.3775 C.ar      11 UNK        -0.0753 
     14 C14       -78.1840   28.9169  -71.3057 C.ar      11 UNK        -0.0933 
     15 C15       -75.7505   29.1345  -70.6230 C.3       11 UNK         0.0166 
     16 S16       -74.4917   28.4381  -71.7461 S.3       11 UNK        -0.2615 
     17 C17       -73.5973   29.9454  -72.2675 C.3       11 UNK        -0.0865 
     18 CA        -72.1546   29.7067  -72.7779 C.3       10 UNK         0.0862 
     19 C         -71.2096   29.1125  -71.6898 C.2       10 UNK         0.5551 
     20 N         -70.5539   27.9788  -71.9118 N.am      10 UNK        -0.7319 
     21 O         -71.0543   29.7076  -70.6260 O.2       10 UNK        -0.5018 
     22 N         -72.1413   29.0051  -74.0708 N.am      10 UNK        -0.4509 
     23 C         -71.1526   29.1159  -74.9699 C.2       10 UNK         0.4899 
     24 O         -70.2121   29.9034  -74.8505 O.2       10 UNK        -0.4839 
     25 CA        -71.2127   28.1885  -76.2014 C.3       9 UNK         0.0222 
     26 CB        -69.8299   27.9729  -76.8512 C.3       9 UNK        -0.1966 
     27 N         -71.8538   26.8965  -75.9374 N.am      9 UNK        -0.4218 
     28 C         -71.5263   25.9846  -75.0072 C.2       9 UNK         0.5020 
     29 O         -70.5901   26.1180  -74.2178 O.2       9 UNK        -0.5274 
     30 CA        -72.4061   24.7254  -74.9148 C.3       8 UNK         0.0270 
     31 CB        -73.0525   24.6156  -73.5217 C.3       8 UNK        -0.1976 
     32 N         -73.4603   24.7311  -75.9347 N.am      8 UNK        -0.4313 
     33 C         -73.4582   23.9705  -77.0367 C.2       8 UNK         0.5041 
     34 O         -72.6062   23.1141  -77.2772 O.2       8 UNK        -0.5577 
     35 CA        -74.5832   24.2051  -78.0579 C.3       7 UNK         0.0284 
     36 CB        -75.8077   23.3349  -77.7295 C.3       7 UNK        -0.1958 
     37 N         -74.9964   25.6056  -78.1984 N.am      7 UNK        -0.4454 
     38 C         -74.2435   26.5734  -78.7431 C.2       7 UNK         0.5089 
     39 O         -73.0593   26.4286  -79.0432 O.2       7 UNK        -0.5125 
     40 CA        -74.9203   27.9280  -79.0029 C.3       6 UNK         0.0408 
     41 CB        -75.8738   27.8313  -80.2052 C.3       6 UNK        -0.1791 
     42 N         -75.6667   28.3749  -77.8296 N.am      6 UNK        -0.4762 
     43 C         -75.2703   29.3379  -76.9840 C.2       6 UNK         0.5007 
     44 O         -74.2647   30.0285  -77.1511 O.2       6 UNK        -0.5032 
     45 CA        -76.1276   29.5407  -75.7124 C.3       5 UNK         0.0783 
     46 C46       -77.1857   30.6632  -75.9169 C.3       11 UNK        -0.0857 
     47 S47       -76.6698   32.2254  -75.1253 S.3       11 UNK        -0.2512 
     48 C48       -77.9124   32.4314  -73.8025 C.3       11 UNK         0.0225 
     49 N         -76.7328   28.2953  -75.2242 N.am      5 UNK        -0.4615 
     50 C         -76.0546   27.1803  -74.9188 C.2       4 UNK         0.5053 
     51 O         -74.8282   27.0879  -74.9721 O.2       4 UNK        -0.5105 
     52 CA        -76.8724   25.9236  -74.5824 C.3       4 UNK         0.0263 
     53 CB        -76.9882   25.7481  -73.0628 C.3       4 UNK        -0.1981 
     54 N         -78.2036   25.8626  -75.2021 N.am      4 UNK        -0.4224 
     55 C         -78.4588   25.9215  -76.5194 C.2       3 UNK         0.4895 
     56 O         -77.5947   26.1524  -77.3684 O.2       3 UNK        -0.5091 
     57 CA        -79.9197   25.6941  -76.9577 C.3       3 UNK         0.0250 
     58 CB        -80.0423   25.3925  -78.4666 C.3       3 UNK        -0.1996 
     59 N         -80.6156   24.6686  -76.1676 N.am      3 UNK        -0.4254 
     60 C         -80.2759   23.3797  -76.0040 C.2       2 UNK         0.5004 
     61 O         -79.2935   22.8556  -76.5309 O.2       2 UNK        -0.5226 
     62 CA        -81.1747   22.5538  -75.0568 C.3       2 UNK         0.0269 
     63 CB        -80.6998   21.0962  -74.9054 C.3       2 UNK        -0.1926 
     64 N         -81.2548   23.1637  -73.7253 N.am      2 UNK        -0.4687 
     65 C         -82.0096   24.2260  -73.4102 C.2       1 UNK         0.5165 
     66 O         -82.8041   24.7458  -74.1959 O.2       1 UNK        -0.5079 
     67 H67       -81.4199   21.9924  -69.1921 H         1 UNK         0.0900 
     68 H68       -83.0976   22.1249  -68.6622 H         1 UNK         0.0900 
     69 H69       -82.6572   20.9658  -69.9193 H         1 UNK         0.0900 
     70 H70       -80.8194   23.6720  -70.5343 H         1 UNK         0.2959 
     71 H71       -82.6765   25.4494  -71.7877 H         1 UNK         0.1079 
     72 H72       -80.3694   26.0847  -70.9488 H         1 UNK         0.0837 
     73 H73       -79.6597   25.1732  -72.2394 H         1 UNK         0.0837 
     74 H74       -81.4521   29.2640  -72.1685 H         1 UNK         0.0685 
     75 H75       -80.7994   28.2730  -70.8991 H         1 UNK         0.0685 
     76 H76       -80.0718   30.8106  -73.3962 H         1 UNK         0.1434 
     77 H77       -76.0019   31.3627  -72.1912 H         1 UNK         0.1329 
     78 H78       -78.2502   28.0248  -70.6983 H         1 UNK         0.1335 
     79 H79       -76.0339   28.3597  -69.9091 H         1 UNK         0.0680 
     80 H80       -75.3257   29.9465  -70.0314 H         1 UNK         0.0680 
     81 H81       -74.1694   30.4366  -73.0532 H         1 UNK         0.1032 
     82 H82       -73.5736   30.6508  -71.4351 H         1 UNK         0.1032 
     83 H83       -71.7519   30.7039  -72.9668 H         1 UNK         0.0461 
     84 H84       -69.9436   27.6185  -71.1963 H         1 UNK         0.3453 
     85 H85       -70.6564   27.4714  -72.7847 H         1 UNK         0.3453 
     86 H86       -72.8765   28.3259  -74.2223 H         1 UNK         0.2984 
     87 H87       -71.8447   28.6951  -76.9316 H         1 UNK         0.0554 
     88 H88       -69.3952   28.9191  -77.1757 H         1 UNK         0.0847 
     89 H89       -69.9018   27.3340  -77.7315 H         1 UNK         0.0847 
     90 H90       -69.1262   27.5115  -76.1574 H         1 UNK         0.0847 
     91 H91       -72.6431   26.6822  -76.5295 H         1 UNK         0.3141 
     92 H92       -71.7484   23.8644  -75.0494 H         1 UNK         0.0743 
     93 H93       -72.2915   24.4977  -72.7491 H         1 UNK         0.0784 
     94 H94       -73.6299   25.5046  -73.2679 H         1 UNK         0.0784 
     95 H95       -73.7157   23.7531  -73.4566 H         1 UNK         0.0784 
     96 H96       -74.1802   25.4367  -75.8112 H         1 UNK         0.3213 
     97 H97       -74.2024   23.8839  -79.0301 H         1 UNK         0.0855 
     98 H98       -76.2530   23.5976  -76.7705 H         1 UNK         0.0814 
     99 H99       -75.5351   22.2799  -77.6816 H         1 UNK         0.0814 
    100 H100      -76.5823   23.4337  -78.4905 H         1 UNK         0.0814 
    101 H101      -75.9671   25.8131  -77.9646 H         1 UNK         0.3105 
    102 H102      -74.1390   28.6484  -79.2543 H         1 UNK         0.0547 
    103 H103      -76.3065   28.8029  -80.4436 H         1 UNK         0.0837 
    104 H104      -75.3465   27.4849  -81.0951 H         1 UNK         0.0837 
    105 H105      -76.6951   27.1373  -80.0205 H         1 UNK         0.0837 
    106 H106      -76.4856   27.8270  -77.5848 H         1 UNK         0.3020 
    107 H107      -75.4307   29.8402  -74.9280 H         1 UNK         0.1245 
    108 H108      -78.1554   30.3677  -75.5154 H         1 UNK         0.0781 
    109 H109      -77.3787   30.8633  -76.9731 H         1 UNK         0.0781 
    110 H110      -78.8761   32.6606  -74.2600 H         1 UNK         0.0836 
    111 H111      -77.6466   33.3002  -73.1988 H         1 UNK         0.0836 
    112 H112      -77.7380   28.2794  -75.1417 H         1 UNK         0.3022 
    113 H113      -76.3072   25.0731  -74.9649 H         1 UNK         0.0747 
    114 H114      -77.4014   24.7730  -72.8068 H         1 UNK         0.0793 
    115 H115      -76.0106   25.8145  -72.5836 H         1 UNK         0.0793 
    116 H116      -77.6168   26.5180  -72.6181 H         1 UNK         0.0793 
    117 H117      -78.9840   25.7145  -74.5789 H         1 UNK         0.3047 
    118 H118      -80.4399   26.6335  -76.7650 H         1 UNK         0.0822 
    119 H119      -79.6429   26.2128  -79.0646 H         1 UNK         0.0807 
    120 H120      -81.0826   25.2557  -78.7614 H         1 UNK         0.0807 
    121 H121      -79.4930   24.4921  -78.7439 H         1 UNK         0.0807 
    122 H122      -81.4392   24.9852  -75.6641 H         1 UNK         0.2946 
    123 H123      -82.1730   22.5331  -75.5007 H         1 UNK         0.1144 
    124 H124      -81.3753   20.5230  -74.2701 H         1 UNK         0.0793 
    125 H125      -79.7006   21.0390  -74.4718 H         1 UNK         0.0793 
    126 H126      -80.6648   20.5941  -75.8733 H         1 UNK         0.0793 
    127 H127      -80.6256   22.7997  -73.0244 H         1 UNK         0.2896 
@<TRIPOS>BOND
     1    1    2 1    
     2    1   67 1    
     3    1   68 1    
     4    1   69 1    
     5    2    3 2    
     6    2    4 am   BACKBONE|DICT|INTERRES
     7    4    5 1    
     8    4   70 1    
     9    5    6 1    
    10    5   65 1    
    11    5   71 1    
    12    6    7 1    
    13    6   72 1    
    14    6   73 1    
    15    7    8 1    
    16    8    9 1    
    17    8   74 1    
    18    8   75 1    
    19    9   10 ar   
    20    9   14 ar   
    21   10   11 ar   
    22   10   76 1    
    23   11   12 ar   
    24   11   48 1    
    25   12   13 ar   
    26   12   77 1    
    27   13   14 ar   
    28   13   15 1    
    29   14   78 1    
    30   15   16 1    
    31   15   79 1    
    32   15   80 1    
    33   16   17 1    
    34   17   18 1    
    35   17   81 1    
    36   17   82 1    
    37   18   19 1    
    38   18   22 1    
    39   18   83 1    
    40   19   20 am   BACKBONE|DICT|INTERRES
    41   19   21 2    
    42   20   84 1    
    43   20   85 1    
    44   22   23 am   BACKBONE|DICT|INTERRES
    45   22   86 1    
    46   23   24 2    
    47   23   25 1    
    48   25   26 1    
    49   25   27 1    
    50   25   87 1    
    51   26   88 1    
    52   26   89 1    
    53   26   90 1    
    54   27   28 am   BACKBONE|DICT|INTERRES
    55   27   91 1    
    56   28   29 2    
    57   28   30 1    
    58   30   31 1    
    59   30   32 1    
    60   30   92 1    
    61   31   93 1    
    62   31   94 1    
    63   31   95 1    
    64   32   33 am   BACKBONE|DICT|INTERRES
    65   32   96 1    
    66   33   34 2    
    67   33   35 1    
    68   35   36 1    
    69   35   37 1    
    70   35   97 1    
    71   36   98 1    
    72   36   99 1    
    73   36  100 1    
    74   37   38 am   BACKBONE|DICT|INTERRES
    75   37  101 1    
    76   38   39 2    
    77   38   40 1    
    78   40   41 1    
    79   40   42 1    
    80   40  102 1    
    81   41  103 1    
    82   41  104 1    
    83   41  105 1    
    84   42   43 am   BACKBONE|DICT|INTERRES
    85   42  106 1    
    86   43   44 2    
    87   43   45 1    
    88   45   46 1    
    89   45   49 1    
    90   45  107 1    
    91   46   47 1    
    92   46  108 1    
    93   46  109 1    
    94   47   48 1    
    95   48  110 1    
    96   48  111 1    
    97   49   50 am   BACKBONE|DICT|INTERRES
    98   49  112 1    
    99   50   51 2    
   100   50   52 1    
   101   52   53 1    
   102   52   54 1    
   103   52  113 1    
   104   53  114 1    
   105   53  115 1    
   106   53  116 1    
   107   54   55 am   BACKBONE|DICT|INTERRES
   108   54  117 1    
   109   55   56 2    
   110   55   57 1    
   111   57   58 1    
   112   57   59 1    
   113   57  118 1    
   114   58  119 1    
   115   58  120 1    
   116   58  121 1    
   117   59   60 am   BACKBONE|DICT|INTERRES
   118   59  122 1    
   119   60   61 2    
   120   60   62 1    
   121   62   63 1    
   122   62   64 1    
   123   62  123 1    
   124   63  124 1    
   125   63  125 1    
   126   63  126 1    
   127   64   65 am   BACKBONE|DICT|INTERRES
   128   64  127 1    
   129   65   66 2    
@<TRIPOS>SUBSTRUCTURE
     1 UNK         1 GROUP             0       ****    0 ROOT    
