@<TRIPOS>MOLECULE
3R135
127   129    1
SMALL
USER_CHARGES


@<TRIPOS>ATOM
      1 CA        -85.1681   30.3952  -74.3301 C.3       0 UNK        -0.1998 
      2 C         -83.8927   29.6550  -74.7046 C.2       0 UNK         0.4909 
      3 O         -83.6796   29.3578  -75.8810 O.2       0 UNK        -0.5240 
      4 N         -83.0393   29.3643  -73.7155 N.am      1 UNK        -0.4739 
      5 CA        -81.8040   28.5905  -73.8741 C.3       1 UNK         0.0864 
      6 C6        -80.8042   28.8730  -72.7231 C.3       11 UNK        -0.0881 
      7 S7        -81.4530   28.5280  -71.0483 S.3       11 UNK        -0.2682 
      8 C8        -80.3194   29.5128  -70.0107 C.3       11 UNK         0.0289 
      9 C9        -78.8528   29.1871  -70.2699 C.ar      11 UNK        -0.0687 
     10 C10       -78.3911   27.8716  -70.1603 C.ar      11 UNK        -0.0823 
     11 C11       -77.0623   27.5585  -70.4580 C.ar      11 UNK        -0.0830 
     12 C12       -76.1765   28.5805  -70.8080 C.ar      11 UNK        -0.1021 
     13 C13       -76.6219   29.9004  -70.9135 C.ar      11 UNK        -0.0753 
     14 C14       -77.9619   30.1985  -70.6457 C.ar      11 UNK        -0.0933 
     15 C15       -75.6513   30.9949  -71.3287 C.3       11 UNK         0.0166 
     16 S16       -75.0827   30.7614  -73.0428 S.3       11 UNK        -0.2615 
     17 C17       -74.0210   32.2282  -73.2737 C.3       11 UNK        -0.0865 
     18 CA        -72.4919   32.0239  -73.0511 C.3       10 UNK         0.0862 
     19 C         -72.0683   31.9125  -71.5527 C.2       10 UNK         0.5551 
     20 N         -71.0523   31.1366  -71.1999 N.am      10 UNK        -0.7319 
     21 O         -72.6328   32.5913  -70.6983 O.2       10 UNK        -0.5018 
     22 N         -71.8614   31.1052  -74.0222 N.am      10 UNK        -0.4509 
     23 C         -71.7760   29.7680  -73.9907 C.2       10 UNK         0.4899 
     24 O         -72.2266   29.0474  -73.0974 O.2       10 UNK        -0.4839 
     25 CA        -70.9894   29.1353  -75.1458 C.3       9 UNK         0.0222 
     26 CB        -69.4803   29.4270  -75.0101 C.3       9 UNK        -0.1966 
     27 N         -71.2216   27.6935  -75.1528 N.am      9 UNK        -0.4218 
     28 C         -70.9990   26.8687  -76.1820 C.2       9 UNK         0.5020 
     29 O         -70.5621   27.2476  -77.2706 O.2       9 UNK        -0.5274 
     30 CA        -71.2886   25.3709  -75.9755 C.3       8 UNK         0.0270 
     31 CB        -71.6100   24.9747  -74.5185 C.3       8 UNK        -0.1976 
     32 N         -72.4014   24.9825  -76.8381 N.am      8 UNK        -0.4313 
     33 C         -72.2865   24.4203  -78.0491 C.2       8 UNK         0.5041 
     34 O         -71.2103   24.0822  -78.5458 O.2       8 UNK        -0.5577 
     35 CA        -73.5792   24.1684  -78.8519 C.3       7 UNK         0.0284 
     36 CB        -73.9100   22.6668  -78.8758 C.3       7 UNK        -0.1958 
     37 N         -74.7438   24.9042  -78.3530 N.am      7 UNK        -0.4454 
     38 C         -74.9268   26.2268  -78.4674 C.2       7 UNK         0.5089 
     39 O         -74.1693   26.9732  -79.0872 O.2       7 UNK        -0.5125 
     40 CA        -76.1394   26.8233  -77.7289 C.3       6 UNK         0.0408 
     41 CB        -77.3905   26.7819  -78.6193 C.3       6 UNK        -0.1791 
     42 N         -76.4244   26.1578  -76.4530 N.am      6 UNK        -0.4762 
     43 C         -75.5862   26.1107  -75.4058 C.2       6 UNK         0.5007 
     44 O         -74.4820   26.6522  -75.3952 O.2       6 UNK        -0.5032 
     45 CA        -76.0250   25.2684  -74.1947 C.3       5 UNK         0.0783 
     46 C46       -76.9961   26.0567  -73.2891 C.3       11 UNK        -0.0857 
     47 S47       -77.4240   25.1389  -71.7666 S.3       11 UNK        -0.2512 
     48 C48       -76.5967   26.1100  -70.4620 C.3       11 UNK         0.0225 
     49 N         -76.5873   23.9919  -74.6367 N.am      5 UNK        -0.4615 
     50 C         -75.8634   22.9603  -75.0874 C.2       4 UNK         0.5053 
     51 O         -74.6341   22.9546  -75.1353 O.2       4 UNK        -0.5105 
     52 CA        -76.6462   21.7340  -75.5876 C.3       4 UNK         0.0263 
     53 CB        -76.9038   20.7539  -74.4322 C.3       4 UNK        -0.1981 
     54 N         -77.9203   22.0871  -76.2213 N.am      4 UNK        -0.4224 
     55 C         -78.0294   22.7700  -77.3699 C.2       3 UNK         0.4895 
     56 O         -77.0668   23.1518  -78.0341 O.2       3 UNK        -0.5091 
     57 CA        -79.4522   23.1293  -77.8293 C.3       3 UNK         0.0250 
     58 CB        -80.0898   21.9533  -78.5863 C.3       3 UNK        -0.1996 
     59 N         -80.3353   23.5526  -76.7356 N.am      3 UNK        -0.4254 
     60 C         -80.1197   24.6222  -75.9581 C.2       2 UNK         0.5004 
     61 O         -79.1201   25.3414  -76.0394 O.2       2 UNK        -0.5226 
     62 CA        -81.1717   24.9252  -74.8882 C.3       2 UNK         0.0269 
     63 CB        -80.9121   24.0974  -73.6162 C.3       2 UNK        -0.1926 
     64 N         -81.1060   26.3519  -74.5831 N.am      2 UNK        -0.4687 
     65 C         -82.0910   27.0810  -74.0488 C.2       1 UNK         0.5165 
     66 O         -83.1750   26.6043  -73.6985 O.2       1 UNK        -0.5079 
     67 H67       -85.2238   31.3425  -74.8657 H         1 UNK         0.0900 
     68 H68       -86.0398   29.7991  -74.5989 H         1 UNK         0.0900 
     69 H69       -85.2180   30.6061  -73.2619 H         1 UNK         0.0900 
     70 H70       -83.2781   29.5952  -72.7614 H         1 UNK         0.2959 
     71 H71       -81.3301   28.9235  -74.8008 H         1 UNK         0.1079 
     72 H72       -80.5040   29.9213  -72.7639 H         1 UNK         0.0837 
     73 H73       -79.8840   28.3019  -72.8632 H         1 UNK         0.0837 
     74 H74       -80.5457   29.3235  -68.9607 H         1 UNK         0.0685 
     75 H75       -80.5189   30.5715  -70.1840 H         1 UNK         0.0685 
     76 H76       -79.0802   27.0815  -69.8940 H         1 UNK         0.1434 
     77 H77       -75.1456   28.3486  -71.0414 H         1 UNK         0.1329 
     78 H78       -78.3129   31.2172  -70.7382 H         1 UNK         0.1335 
     79 H79       -76.1124   31.9789  -71.2304 H         1 UNK         0.0680 
     80 H80       -74.7952   30.9800  -70.6541 H         1 UNK         0.0680 
     81 H81       -74.3916   33.0433  -72.6493 H         1 UNK         0.1032 
     82 H82       -74.1797   32.5720  -74.2967 H         1 UNK         0.1032 
     83 H83       -72.0491   32.9816  -73.3278 H         1 UNK         0.0461 
     84 H84       -70.6019   30.5512  -71.8843 H         1 UNK         0.3453 
     85 H85       -70.7761   31.0919  -70.2319 H         1 UNK         0.3453 
     86 H86       -71.4164   31.5727  -74.7990 H         1 UNK         0.2984 
     87 H87       -71.3639   29.5568  -76.0810 H         1 UNK         0.0554 
     88 H88       -69.2797   30.4988  -74.9968 H         1 UNK         0.0847 
     89 H89       -68.9156   29.0106  -75.8443 H         1 UNK         0.0847 
     90 H90       -69.0720   29.0069  -74.0900 H         1 UNK         0.0847 
     91 H91       -71.6521   27.3407  -74.3061 H         1 UNK         0.3141 
     92 H92       -70.3847   24.8319  -76.2666 H         1 UNK         0.0743 
     93 H93       -70.7855   25.2275  -73.8505 H         1 UNK         0.0784 
     94 H94       -72.5083   25.4615  -74.1398 H         1 UNK         0.0784 
     95 H95       -71.7675   23.8988  -74.4365 H         1 UNK         0.0784 
     96 H96       -73.3184   25.2843  -76.5305 H         1 UNK         0.3213 
     97 H97       -73.3897   24.4920  -79.8776 H         1 UNK         0.0855 
     98 H98       -74.1263   22.2877  -77.8764 H         1 UNK         0.0814 
     99 H99       -73.0752   22.0870  -79.2717 H         1 UNK         0.0814 
    100 H100      -74.7746   22.4605  -79.5070 H         1 UNK         0.0814 
    101 H101      -75.4740   24.3545  -77.9091 H         1 UNK         0.3105 
    102 H102      -75.9119   27.8684  -77.5091 H         1 UNK         0.0547 
    103 H103      -77.2209   27.3151  -79.5556 H         1 UNK         0.0837 
    104 H104      -78.2437   27.2501  -78.1283 H         1 UNK         0.0837 
    105 H105      -77.6705   25.7593  -78.8726 H         1 UNK         0.0837 
    106 H106      -77.3391   25.7183  -76.3637 H         1 UNK         0.3020 
    107 H107      -75.1246   25.0581  -73.6121 H         1 UNK         0.1245 
    108 H108      -77.9245   26.2809  -73.8165 H         1 UNK         0.0781 
    109 H109      -76.5615   27.0232  -73.0339 H         1 UNK         0.0781 
    110 H110      -75.5164   26.0457  -70.6018 H         1 UNK         0.0836 
    111 H111      -76.8097   25.6593  -69.4918 H         1 UNK         0.0836 
    112 H112      -77.5940   23.9301  -74.6559 H         1 UNK         0.3022 
    113 H113      -76.0277   21.2302  -76.3337 H         1 UNK         0.0747 
    114 H114      -77.3895   19.8435  -74.7841 H         1 UNK         0.0793 
    115 H115      -75.9672   20.4567  -73.9581 H         1 UNK         0.0793 
    116 H116      -77.5342   21.1955  -73.6590 H         1 UNK         0.0793 
    117 H117      -78.7652   21.8112  -75.7426 H         1 UNK         0.3047 
    118 H118      -79.3661   23.9689  -78.5221 H         1 UNK         0.0822 
    119 H119      -81.0553   22.2308  -79.0100 H         1 UNK         0.0807 
    120 H120      -80.2423   21.0881  -77.9399 H         1 UNK         0.0807 
    121 H121      -79.4557   21.6335  -79.4146 H         1 UNK         0.0807 
    122 H122      -81.1746   23.0077  -76.5962 H         1 UNK         0.2946 
    123 H123      -82.1594   24.6887  -75.2910 H         1 UNK         0.1144 
    124 H124      -79.9338   24.3157  -73.1881 H         1 UNK         0.0793 
    125 H125      -80.9472   23.0278  -73.8266 H         1 UNK         0.0793 
    126 H126      -81.6612   24.2989  -72.8504 H         1 UNK         0.0793 
    127 H127      -80.2476   26.7932  -74.8902 H         1 UNK         0.2896 
@<TRIPOS>BOND
     1    1    2 1    
     2    1   67 1    
     3    1   68 1    
     4    1   69 1    
     5    2    3 2    
     6    2    4 am   BACKBONE|DICT|INTERRES
     7    4    5 1    
     8    4   70 1    
     9    5    6 1    
    10    5   65 1    
    11    5   71 1    
    12    6    7 1    
    13    6   72 1    
    14    6   73 1    
    15    7    8 1    
    16    8    9 1    
    17    8   74 1    
    18    8   75 1    
    19    9   10 ar   
    20    9   14 ar   
    21   10   11 ar   
    22   10   76 1    
    23   11   12 ar   
    24   11   48 1    
    25   12   13 ar   
    26   12   77 1    
    27   13   14 ar   
    28   13   15 1    
    29   14   78 1    
    30   15   16 1    
    31   15   79 1    
    32   15   80 1    
    33   16   17 1    
    34   17   18 1    
    35   17   81 1    
    36   17   82 1    
    37   18   19 1    
    38   18   22 1    
    39   18   83 1    
    40   19   20 am   BACKBONE|DICT|INTERRES
    41   19   21 2    
    42   20   84 1    
    43   20   85 1    
    44   22   23 am   BACKBONE|DICT|INTERRES
    45   22   86 1    
    46   23   24 2    
    47   23   25 1    
    48   25   26 1    
    49   25   27 1    
    50   25   87 1    
    51   26   88 1    
    52   26   89 1    
    53   26   90 1    
    54   27   28 am   BACKBONE|DICT|INTERRES
    55   27   91 1    
    56   28   29 2    
    57   28   30 1    
    58   30   31 1    
    59   30   32 1    
    60   30   92 1    
    61   31   93 1    
    62   31   94 1    
    63   31   95 1    
    64   32   33 am   BACKBONE|DICT|INTERRES
    65   32   96 1    
    66   33   34 2    
    67   33   35 1    
    68   35   36 1    
    69   35   37 1    
    70   35   97 1    
    71   36   98 1    
    72   36   99 1    
    73   36  100 1    
    74   37   38 am   BACKBONE|DICT|INTERRES
    75   37  101 1    
    76   38   39 2    
    77   38   40 1    
    78   40   41 1    
    79   40   42 1    
    80   40  102 1    
    81   41  103 1    
    82   41  104 1    
    83   41  105 1    
    84   42   43 am   BACKBONE|DICT|INTERRES
    85   42  106 1    
    86   43   44 2    
    87   43   45 1    
    88   45   46 1    
    89   45   49 1    
    90   45  107 1    
    91   46   47 1    
    92   46  108 1    
    93   46  109 1    
    94   47   48 1    
    95   48  110 1    
    96   48  111 1    
    97   49   50 am   BACKBONE|DICT|INTERRES
    98   49  112 1    
    99   50   51 2    
   100   50   52 1    
   101   52   53 1    
   102   52   54 1    
   103   52  113 1    
   104   53  114 1    
   105   53  115 1    
   106   53  116 1    
   107   54   55 am   BACKBONE|DICT|INTERRES
   108   54  117 1    
   109   55   56 2    
   110   55   57 1    
   111   57   58 1    
   112   57   59 1    
   113   57  118 1    
   114   58  119 1    
   115   58  120 1    
   116   58  121 1    
   117   59   60 am   BACKBONE|DICT|INTERRES
   118   59  122 1    
   119   60   61 2    
   120   60   62 1    
   121   62   63 1    
   122   62   64 1    
   123   62  123 1    
   124   63  124 1    
   125   63  125 1    
   126   63  126 1    
   127   64   65 am   BACKBONE|DICT|INTERRES
   128   64  127 1    
   129   65   66 2    
@<TRIPOS>SUBSTRUCTURE
     1 UNK         1 GROUP             0       ****    0 ROOT    
