@<TRIPOS>MOLECULE
3R135
127   129    1
SMALL
USER_CHARGES


@<TRIPOS>ATOM
      1 CA        -84.0777   26.8938  -70.6648 C.3       0 UNK        -0.1998 
      2 C         -83.7805   27.2421  -72.1155 C.2       0 UNK         0.4909 
      3 O         -84.6365   27.0496  -72.9794 O.2       0 UNK        -0.5240 
      4 N         -82.5739   27.7569  -72.3862 N.am      1 UNK        -0.4739 
      5 CA        -82.1005   28.1322  -73.7260 C.3       1 UNK         0.0864 
      6 C6        -80.8355   29.0225  -73.6652 C.3       11 UNK        -0.0881 
      7 S7        -81.1479   30.6368  -72.8659 S.3       11 UNK        -0.2682 
      8 C8        -80.6803   30.3528  -71.1249 C.3       11 UNK         0.0289 
      9 C9        -79.1999   30.0422  -70.9647 C.ar      11 UNK        -0.0687 
     10 C10       -78.7725   28.7284  -70.7584 C.ar      11 UNK        -0.0823 
     11 C11       -77.4109   28.4340  -70.6519 C.ar      11 UNK        -0.0830 
     12 C12       -76.4788   29.4752  -70.6977 C.ar      11 UNK        -0.1021 
     13 C13       -76.8895   30.8009  -70.8987 C.ar      11 UNK        -0.0753 
     14 C14       -78.2556   31.0700  -71.0288 C.ar      11 UNK        -0.0933 
     15 C15       -75.9141   31.9790  -70.9853 C.3       11 UNK         0.0166 
     16 S16       -74.1414   31.5635  -71.1391 S.3       11 UNK        -0.2615 
     17 C17       -74.0876   30.7837  -72.7896 C.3       11 UNK        -0.0865 
     18 CA        -72.8595   29.8558  -72.9696 C.3       10 UNK         0.0862 
     19 C         -72.9216   28.5860  -72.0842 C.2       10 UNK         0.5551 
     20 N         -72.0573   28.4741  -71.0852 N.am      10 UNK        -0.7319 
     21 O         -73.7624   27.7138  -72.2813 O.2       10 UNK        -0.5018 
     22 N         -72.7213   29.4468  -74.3672 N.am      10 UNK        -0.4509 
     23 C         -71.8901   29.9908  -75.2621 C.2       10 UNK         0.4899 
     24 O         -71.1945   30.9835  -75.0401 O.2       10 UNK        -0.4839 
     25 CA        -71.8238   29.2881  -76.6323 C.3       9 UNK         0.0222 
     26 CB        -70.6568   29.7767  -77.5161 C.3       9 UNK        -0.1966 
     27 N         -71.8131   27.8269  -76.5003 N.am      9 UNK        -0.4218 
     28 C         -70.9030   27.0632  -75.8751 C.2       9 UNK         0.5020 
     29 O         -69.8555   27.4940  -75.3908 O.2       9 UNK        -0.5274 
     30 CA        -71.2205   25.5619  -75.7331 C.3       8 UNK         0.0270 
     31 CB        -71.6363   25.2471  -74.2863 C.3       8 UNK        -0.1976 
     32 N         -72.2671   25.0892  -76.6451 N.am      8 UNK        -0.4313 
     33 C         -72.1127   24.9419  -77.9686 C.2       8 UNK         0.5041 
     34 O         -71.0452   25.1183  -78.5569 O.2       8 UNK        -0.5577 
     35 CA        -73.3650   24.5656  -78.7781 C.3       7 UNK         0.0284 
     36 CB        -73.6073   23.0486  -78.7279 C.3       7 UNK        -0.1958 
     37 N         -74.5696   25.2755  -78.3361 N.am      7 UNK        -0.4454 
     38 C         -74.7517   26.6021  -78.4150 C.2       7 UNK         0.5089 
     39 O         -73.9303   27.3792  -78.9005 O.2       7 UNK        -0.5125 
     40 CA        -76.0457   27.1672  -77.8028 C.3       6 UNK         0.0408 
     41 CB        -77.2401   26.9682  -78.7483 C.3       6 UNK        -0.1791 
     42 N         -76.3437   26.5890  -76.4908 N.am      6 UNK        -0.4762 
     43 C         -75.5713   26.7386  -75.4033 C.2       6 UNK         0.5007 
     44 O         -74.5523   27.4289  -75.3777 O.2       6 UNK        -0.5032 
     45 CA        -75.9905   25.9513  -74.1491 C.3       5 UNK         0.0783 
     46 C46       -77.0546   26.7455  -73.3555 C.3       11 UNK        -0.0857 
     47 S47       -77.6015   25.9021  -71.8305 S.3       11 UNK        -0.2512 
     48 C48       -76.9371   26.9897  -70.5205 C.3       11 UNK         0.0225 
     49 N         -76.4298   24.5984  -74.5050 N.am      5 UNK        -0.4615 
     50 C         -75.6217   23.6422  -74.9841 C.2       4 UNK         0.5053 
     51 O         -74.4126   23.7916  -75.1554 O.2       4 UNK        -0.5105 
     52 CA        -76.2786   22.3105  -75.3847 C.3       4 UNK         0.0263 
     53 CB        -76.4790   21.4148  -74.1521 C.3       4 UNK        -0.1981 
     54 N         -77.5590   22.4965  -76.0705 N.am      4 UNK        -0.4224 
     55 C         -77.7077   23.1169  -77.2504 C.2       3 UNK         0.4895 
     56 O         -76.7685   23.5278  -77.9292 O.2       3 UNK        -0.5091 
     57 CA        -79.1465   23.3689  -77.7337 C.3       3 UNK         0.0250 
     58 CB        -79.6213   22.2162  -78.6322 C.3       3 UNK        -0.1996 
     59 N         -80.1068   23.5703  -76.6429 N.am      3 UNK        -0.4254 
     60 C         -80.0386   24.5540  -75.7344 C.2       2 UNK         0.5004 
     61 O         -79.1465   25.4061  -75.7116 O.2       2 UNK        -0.5226 
     62 CA        -81.1029   24.5127  -74.6248 C.3       2 UNK         0.0269 
     63 CB        -80.6821   23.5180  -73.5292 C.3       2 UNK        -0.1926 
     64 N         -81.3465   25.8132  -73.9992 N.am      2 UNK        -0.4687 
     65 C         -81.8563   26.8920  -74.6117 C.2       1 UNK         0.5165 
     66 O         -82.1696   26.9237  -75.8030 O.2       1 UNK        -0.5079 
     67 H67       -84.9465   27.4514  -70.3159 H         1 UNK         0.0900 
     68 H68       -83.2397   27.1271  -70.0080 H         1 UNK         0.0900 
     69 H69       -84.2954   25.8301  -70.5719 H         1 UNK         0.0900 
     70 H70       -81.9200   27.9030  -71.6329 H         1 UNK         0.2959 
     71 H71       -82.8943   28.7081  -74.2080 H         1 UNK         0.1079 
     72 H72       -80.4818   29.2372  -74.6758 H         1 UNK         0.0837 
     73 H73       -80.0126   28.5032  -73.1741 H         1 UNK         0.0837 
     74 H74       -81.2920   29.5567  -70.7006 H         1 UNK         0.0685 
     75 H75       -80.9212   31.2493  -70.5517 H         1 UNK         0.0685 
     76 H76       -79.4948   27.9252  -70.7147 H         1 UNK         0.1434 
     77 H77       -75.4304   29.2377  -70.5956 H         1 UNK         0.1329 
     78 H78       -78.5892   32.0864  -71.1900 H         1 UNK         0.1335 
     79 H79       -76.1881   32.6122  -71.8308 H         1 UNK         0.0680 
     80 H80       -76.0393   32.5903  -70.0906 H         1 UNK         0.0680 
     81 H81       -74.0554   31.5860  -73.5283 H         1 UNK         0.1032 
     82 H82       -75.0111   30.2356  -72.9847 H         1 UNK         0.1032 
     83 H83       -71.9682   30.4179  -72.6820 H         1 UNK         0.0461 
     84 H84       -72.0938   27.6571  -70.4970 H         1 UNK         0.3453 
     85 H85       -71.3752   29.1937  -70.9036 H         1 UNK         0.3453 
     86 H86       -73.2676   28.6291  -74.6334 H         1 UNK         0.2984 
     87 H87       -72.7532   29.5360  -77.1471 H         1 UNK         0.0554 
     88 H88       -70.7413   30.8452  -77.7177 H         1 UNK         0.0847 
     89 H89       -70.6490   29.2654  -78.4787 H         1 UNK         0.0847 
     90 H90       -69.6895   29.6125  -77.0404 H         1 UNK         0.0847 
     91 H91       -72.6516   27.3651  -76.8291 H         1 UNK         0.3141 
     92 H92       -70.3030   25.0121  -75.9527 H         1 UNK         0.0743 
     93 H93       -70.8689   25.5630  -73.5783 H         1 UNK         0.0784 
     94 H94       -72.5601   25.7591  -74.0138 H         1 UNK         0.0784 
     95 H95       -71.7908   24.1779  -74.1407 H         1 UNK         0.0784 
     96 H96       -73.1585   24.8386  -76.2236 H         1 UNK         0.3213 
     97 H97       -73.1811   24.8457  -79.8176 H         1 UNK         0.0855 
     98 H98       -73.8310   22.7085  -77.7163 H         1 UNK         0.0814 
     99 H99       -72.7286   22.5007  -79.0708 H         1 UNK         0.0814 
    100 H100      -74.4402   22.7592  -79.3689 H         1 UNK         0.0814 
    101 H101      -75.3321   24.7006  -77.9818 H         1 UNK         0.3105 
    102 H102      -75.9055   28.2411  -77.6618 H         1 UNK         0.0547 
    103 H103      -77.0668   27.4701  -79.7010 H         1 UNK         0.0837 
    104 H104      -77.4166   25.9154  -78.9660 H         1 UNK         0.0837 
    105 H105      -78.1560   27.3815  -78.3255 H         1 UNK         0.0837 
    106 H106      -77.1837   26.0261  -76.4083 H         1 UNK         0.3020 
    107 H107      -75.1038   25.8518  -73.5196 H         1 UNK         0.1245 
    108 H108      -77.9403   26.9285  -73.9656 H         1 UNK         0.0781 
    109 H109      -76.6599   27.7317  -73.1066 H         1 UNK         0.0781 
    110 H110      -77.2429   26.6022  -69.5480 H         1 UNK         0.0836 
    111 H111      -75.8475   26.9346  -70.5467 H         1 UNK         0.0836 
    112 H112      -77.4233   24.4278  -74.4455 H         1 UNK         0.3022 
    113 H113      -75.6016   21.8002  -76.0730 H         1 UNK         0.0747 
    114 H114      -75.5330   21.2485  -73.6347 H         1 UNK         0.0793 
    115 H115      -76.8693   20.4361  -74.4317 H         1 UNK         0.0793 
    116 H116      -77.1690   21.8601  -73.4339 H         1 UNK         0.0793 
    117 H117      -78.3873   22.1798  -75.5893 H         1 UNK         0.3047 
    118 H118      -79.1339   24.2833  -78.3300 H         1 UNK         0.0822 
    119 H119      -80.6021   22.4240  -79.0605 H         1 UNK         0.0807 
    120 H120      -79.6850   21.2748  -78.0849 H         1 UNK         0.0807 
    121 H121      -78.9331   22.0628  -79.4649 H         1 UNK         0.0807 
    122 H122      -80.8638   22.9040  -76.5835 H         1 UNK         0.2946 
    123 H123      -82.0448   24.1793  -75.0665 H         1 UNK         0.1144 
    124 H124      -80.5350   22.5168  -73.9362 H         1 UNK         0.0793 
    125 H125      -81.4437   23.4372  -72.7532 H         1 UNK         0.0793 
    126 H126      -79.7480   23.8166  -73.0509 H         1 UNK         0.0793 
    127 H127      -81.1128   25.8914  -73.0210 H         1 UNK         0.2896 
@<TRIPOS>BOND
     1    1    2 1    
     2    1   67 1    
     3    1   68 1    
     4    1   69 1    
     5    2    3 2    
     6    2    4 am   BACKBONE|DICT|INTERRES
     7    4    5 1    
     8    4   70 1    
     9    5    6 1    
    10    5   65 1    
    11    5   71 1    
    12    6    7 1    
    13    6   72 1    
    14    6   73 1    
    15    7    8 1    
    16    8    9 1    
    17    8   74 1    
    18    8   75 1    
    19    9   10 ar   
    20    9   14 ar   
    21   10   11 ar   
    22   10   76 1    
    23   11   12 ar   
    24   11   48 1    
    25   12   13 ar   
    26   12   77 1    
    27   13   14 ar   
    28   13   15 1    
    29   14   78 1    
    30   15   16 1    
    31   15   79 1    
    32   15   80 1    
    33   16   17 1    
    34   17   18 1    
    35   17   81 1    
    36   17   82 1    
    37   18   19 1    
    38   18   22 1    
    39   18   83 1    
    40   19   20 am   BACKBONE|DICT|INTERRES
    41   19   21 2    
    42   20   84 1    
    43   20   85 1    
    44   22   23 am   BACKBONE|DICT|INTERRES
    45   22   86 1    
    46   23   24 2    
    47   23   25 1    
    48   25   26 1    
    49   25   27 1    
    50   25   87 1    
    51   26   88 1    
    52   26   89 1    
    53   26   90 1    
    54   27   28 am   BACKBONE|DICT|INTERRES
    55   27   91 1    
    56   28   29 2    
    57   28   30 1    
    58   30   31 1    
    59   30   32 1    
    60   30   92 1    
    61   31   93 1    
    62   31   94 1    
    63   31   95 1    
    64   32   33 am   BACKBONE|DICT|INTERRES
    65   32   96 1    
    66   33   34 2    
    67   33   35 1    
    68   35   36 1    
    69   35   37 1    
    70   35   97 1    
    71   36   98 1    
    72   36   99 1    
    73   36  100 1    
    74   37   38 am   BACKBONE|DICT|INTERRES
    75   37  101 1    
    76   38   39 2    
    77   38   40 1    
    78   40   41 1    
    79   40   42 1    
    80   40  102 1    
    81   41  103 1    
    82   41  104 1    
    83   41  105 1    
    84   42   43 am   BACKBONE|DICT|INTERRES
    85   42  106 1    
    86   43   44 2    
    87   43   45 1    
    88   45   46 1    
    89   45   49 1    
    90   45  107 1    
    91   46   47 1    
    92   46  108 1    
    93   46  109 1    
    94   47   48 1    
    95   48  110 1    
    96   48  111 1    
    97   49   50 am   BACKBONE|DICT|INTERRES
    98   49  112 1    
    99   50   51 2    
   100   50   52 1    
   101   52   53 1    
   102   52   54 1    
   103   52  113 1    
   104   53  114 1    
   105   53  115 1    
   106   53  116 1    
   107   54   55 am   BACKBONE|DICT|INTERRES
   108   54  117 1    
   109   55   56 2    
   110   55   57 1    
   111   57   58 1    
   112   57   59 1    
   113   57  118 1    
   114   58  119 1    
   115   58  120 1    
   116   58  121 1    
   117   59   60 am   BACKBONE|DICT|INTERRES
   118   59  122 1    
   119   60   61 2    
   120   60   62 1    
   121   62   63 1    
   122   62   64 1    
   123   62  123 1    
   124   63  124 1    
   125   63  125 1    
   126   63  126 1    
   127   64   65 am   BACKBONE|DICT|INTERRES
   128   64  127 1    
   129   65   66 2    
@<TRIPOS>SUBSTRUCTURE
     1 UNK         1 GROUP             0       ****    0 ROOT    
