@<TRIPOS>MOLECULE
3R135
127   129    1
SMALL
USER_CHARGES


@<TRIPOS>ATOM
      1 CA        -82.0323   29.4828  -76.5574 C.3       0 UNK        -0.1998 
      2 C         -82.3053   28.8589  -75.1969 C.2       0 UNK         0.4909 
      3 O         -83.4665   28.6378  -74.8524 O.2       0 UNK        -0.5240 
      4 N         -81.2403   28.5772  -74.4326 N.am      1 UNK        -0.4739 
      5 CA        -81.2528   27.9774  -73.0888 C.3       1 UNK         0.0864 
      6 C6        -81.8620   28.8967  -71.9915 C.3       11 UNK        -0.0881 
      7 S7        -81.1088   30.5611  -71.9143 S.3       11 UNK        -0.2682 
      8 C8        -79.8980   30.3930  -70.5620 C.3       11 UNK         0.0289 
      9 C9        -78.6034   29.7631  -71.0526 C.ar      11 UNK        -0.0687 
     10 C10       -78.3885   28.3889  -70.9164 C.ar      11 UNK        -0.0823 
     11 C11       -77.2268   27.8010  -71.4245 C.ar      11 UNK        -0.0830 
     12 C12       -76.2600   28.6029  -72.0380 C.ar      11 UNK        -0.1021 
     13 C13       -76.4445   29.9844  -72.1450 C.ar      11 UNK        -0.0753 
     14 C14       -77.6226   30.5574  -71.6561 C.ar      11 UNK        -0.0933 
     15 C15       -75.3869   30.8561  -72.8100 C.3       11 UNK         0.0166 
     16 S16       -74.2674   31.6206  -71.5906 S.3       11 UNK        -0.2615 
     17 C17       -73.2254   30.2030  -71.0941 C.3       11 UNK        -0.0865 
     18 CA        -71.7319   30.3411  -71.4921 C.3       10 UNK         0.0862 
     19 C         -70.9539   29.0618  -71.0605 C.2       10 UNK         0.5551 
     20 N         -70.5742   28.1775  -71.9774 N.am      10 UNK        -0.7319 
     21 O         -70.6979   28.8713  -69.8743 O.2       10 UNK        -0.5018 
     22 N         -71.5645   30.6950  -72.9106 N.am      10 UNK        -0.4509 
     23 C         -70.4102   31.0661  -73.4792 C.2       10 UNK         0.4899 
     24 O         -69.3819   31.2932  -72.8394 O.2       10 UNK        -0.4839 
     25 CA        -70.3917   31.2117  -75.0165 C.3       9 UNK         0.0222 
     26 CB        -69.0533   30.7355  -75.6202 C.3       9 UNK        -0.1966 
     27 N         -71.5181   30.5763  -75.7204 N.am      9 UNK        -0.4218 
     28 C         -71.8718   29.2806  -75.7165 C.2       9 UNK         0.5020 
     29 O         -71.3318   28.4242  -75.0100 O.2       9 UNK        -0.5274 
     30 CA        -73.0793   28.8997  -76.5998 C.3       8 UNK         0.0270 
     31 CB        -73.2841   29.8322  -77.8162 C.3       8 UNK        -0.1976 
     32 N         -73.0601   27.4991  -77.0330 N.am      8 UNK        -0.4313 
     33 C         -72.1282   26.8784  -77.7754 C.2       8 UNK         0.5041 
     34 O         -71.1108   27.4231  -78.2077 O.2       8 UNK        -0.5577 
     35 CA        -72.3761   25.3938  -78.1180 C.3       7 UNK         0.0284 
     36 CB        -71.6030   24.4841  -77.1493 C.3       7 UNK        -0.1958 
     37 N         -73.7931   25.0167  -78.1023 N.am      7 UNK        -0.4454 
     38 C         -74.7185   25.4739  -78.9580 C.2       7 UNK         0.5089 
     39 O         -74.4521   26.1570  -79.9474 O.2       7 UNK        -0.5125 
     40 CA        -76.1945   25.1446  -78.6531 C.3       6 UNK         0.0408 
     41 CB        -76.7054   24.0495  -79.6026 C.3       6 UNK        -0.1791 
     42 N         -76.4907   24.7516  -77.2676 N.am      6 UNK        -0.4762 
     43 C         -76.2368   25.4693  -76.1601 C.2       6 UNK         0.5007 
     44 O         -75.6333   26.5424  -76.1771 O.2       6 UNK        -0.5032 
     45 CA        -76.7150   24.9097  -74.8038 C.3       5 UNK         0.0783 
     46 C46       -77.6206   25.9390  -74.0842 C.3       11 UNK        -0.0857 
     47 S47       -78.1534   25.3844  -72.4280 S.3       11 UNK        -0.2512 
     48 C48       -77.0234   26.2960  -71.3283 C.3       11 UNK         0.0225 
     49 N         -77.3658   23.6020  -74.9399 N.am      5 UNK        -0.4615 
     50 C         -76.7239   22.4260  -74.9503 C.2       4 UNK         0.5053 
     51 O         -75.4993   22.3237  -74.8793 O.2       4 UNK        -0.5105 
     52 CA        -77.5763   21.1464  -75.0558 C.3       4 UNK         0.0263 
     53 CB        -77.6851   20.4672  -73.6808 C.3       4 UNK        -0.1981 
     54 N         -78.9257   21.3796  -75.5767 N.am      4 UNK        -0.4224 
     55 C         -79.2158   21.6913  -76.8481 C.2       3 UNK         0.4895 
     56 O         -78.3748   21.7576  -77.7441 O.2       3 UNK        -0.5091 
     57 CA        -80.6865   22.0337  -77.1579 C.3       3 UNK         0.0250 
     58 CB        -81.4559   20.7729  -77.5829 C.3       3 UNK        -0.1996 
     59 N         -81.3851   22.6831  -76.0388 N.am      3 UNK        -0.4254 
     60 C         -81.0266   23.8629  -75.5137 C.2       2 UNK         0.5004 
     61 O         -80.0876   24.5386  -75.9444 O.2       2 UNK        -0.5226 
     62 CA        -81.7906   24.3374  -74.2706 C.3       2 UNK         0.0269 
     63 CB        -81.4588   23.4331  -73.0632 C.3       2 UNK        -0.1926 
     64 N         -81.3903   25.7201  -74.0164 N.am      2 UNK        -0.4687 
     65 C         -81.8780   26.5622  -73.0990 C.2       1 UNK         0.5165 
     66 O         -82.7810   26.2686  -72.3125 O.2       1 UNK        -0.5079 
     67 H67       -82.5212   30.4540  -76.6288 H         1 UNK         0.0900 
     68 H68       -82.4250   28.8443  -77.3483 H         1 UNK         0.0900 
     69 H69       -80.9667   29.6264  -76.7354 H         1 UNK         0.0900 
     70 H70       -80.3209   28.8026  -74.7855 H         1 UNK         0.2959 
     71 H71       -80.2054   27.8202  -72.8338 H         1 UNK         0.1079 
     72 H72       -82.9315   29.0284  -72.1647 H         1 UNK         0.0837 
     73 H73       -81.7778   28.4249  -71.0109 H         1 UNK         0.0837 
     74 H74       -80.3260   29.8176  -69.7397 H         1 UNK         0.0685 
     75 H75       -79.6876   31.3844  -70.1579 H         1 UNK         0.0685 
     76 H76       -79.1403   27.7688  -70.4473 H         1 UNK         0.1434 
     77 H77       -75.3675   28.1463  -72.4427 H         1 UNK         0.1329 
     78 H78       -77.7812   31.6227  -71.7548 H         1 UNK         0.1335 
     79 H79       -74.8083   30.2779  -73.5321 H         1 UNK         0.0680 
     80 H80       -75.8751   31.6481  -73.3799 H         1 UNK         0.0680 
     81 H81       -73.6326   29.2838  -71.5127 H         1 UNK         0.1032 
     82 H82       -73.3143   30.0952  -70.0112 H         1 UNK         0.1032 
     83 H83       -71.3150   31.1670  -70.9125 H         1 UNK         0.0461 
     84 H84       -70.7907   28.3230  -72.9571 H         1 UNK         0.3453 
     85 H85       -70.0706   27.3535  -71.6908 H         1 UNK         0.3453 
     86 H86       -72.3636   30.5430  -73.5049 H         1 UNK         0.2984 
     87 H87       -70.4797   32.2809  -75.2138 H         1 UNK         0.0554 
     88 H88       -69.0348   30.8701  -76.7017 H         1 UNK         0.0847 
     89 H89       -68.8703   29.6808  -75.4114 H         1 UNK         0.0847 
     90 H90       -68.2124   31.2981  -75.2128 H         1 UNK         0.0847 
     91 H91       -72.0562   31.1962  -76.3103 H         1 UNK         0.3141 
     92 H92       -73.9587   28.9942  -75.9610 H         1 UNK         0.0743 
     93 H93       -72.3913   29.8857  -78.4409 H         1 UNK         0.0784 
     94 H94       -74.1032   29.4805  -78.4443 H         1 UNK         0.0784 
     95 H95       -73.5399   30.8468  -77.5099 H         1 UNK         0.0784 
     96 H96       -73.8685   26.9597  -76.7324 H         1 UNK         0.3213 
     97 H97       -71.9952   25.2237  -79.1274 H         1 UNK         0.0855 
     98 H98       -71.9505   24.6003  -76.1219 H         1 UNK         0.0814 
     99 H99       -70.5380   24.7207  -77.1604 H         1 UNK         0.0814 
    100 H100      -71.7028   23.4337  -77.4233 H         1 UNK         0.0814 
    101 H101      -74.1083   24.4483  -77.3297 H         1 UNK         0.3105 
    102 H102      -76.7641   26.0546  -78.8514 H         1 UNK         0.0547 
    103 H103      -76.5183   24.3124  -80.6447 H         1 UNK         0.0837 
    104 H104      -76.2171   23.0926  -79.4139 H         1 UNK         0.0837 
    105 H105      -77.7805   23.9029  -79.4971 H         1 UNK         0.0837 
    106 H106      -76.9928   23.8812  -77.1523 H         1 UNK         0.3020 
    107 H107      -75.8155   24.7877  -74.1958 H         1 UNK         0.1245 
    108 H108      -77.1116   26.8986  -73.9975 H         1 UNK         0.0781 
    109 H109      -78.5132   26.1424  -74.6751 H         1 UNK         0.0781 
    110 H110      -77.1951   25.9747  -70.3000 H         1 UNK         0.0836 
    111 H111      -75.9940   26.0228  -71.5654 H         1 UNK         0.0836 
    112 H112      -78.3714   23.6264  -75.0542 H         1 UNK         0.3022 
    113 H113      -77.0603   20.4654  -75.7361 H         1 UNK         0.0747 
    114 H114      -78.2251   19.5223  -73.7454 H         1 UNK         0.0793 
    115 H115      -76.6967   20.2455  -73.2755 H         1 UNK         0.0793 
    116 H116      -78.1989   21.1010  -72.9566 H         1 UNK         0.0793 
    117 H117      -79.6830   21.3395  -74.9107 H         1 UNK         0.3047 
    118 H118      -80.6853   22.7328  -77.9972 H         1 UNK         0.0822 
    119 H119      -82.4722   21.0140  -77.8950 H         1 UNK         0.0807 
    120 H120      -81.5159   20.0425  -76.7750 H         1 UNK         0.0807 
    121 H121      -80.9676   20.2847  -78.4277 H         1 UNK         0.0807 
    122 H122      -82.1659   22.1825  -75.6378 H         1 UNK         0.2946 
    123 H123      -82.8620   24.3126  -74.4803 H         1 UNK         0.1144 
    124 H124      -81.9780   23.7531  -72.1604 H         1 UNK         0.0793 
    125 H125      -80.3904   23.4266  -72.8459 H         1 UNK         0.0793 
    126 H126      -81.7599   22.4011  -73.2458 H         1 UNK         0.0793 
    127 H127      -80.6733   26.0424  -74.6556 H         1 UNK         0.2896 
@<TRIPOS>BOND
     1    1    2 1    
     2    1   67 1    
     3    1   68 1    
     4    1   69 1    
     5    2    3 2    
     6    2    4 am   BACKBONE|DICT|INTERRES
     7    4    5 1    
     8    4   70 1    
     9    5    6 1    
    10    5   65 1    
    11    5   71 1    
    12    6    7 1    
    13    6   72 1    
    14    6   73 1    
    15    7    8 1    
    16    8    9 1    
    17    8   74 1    
    18    8   75 1    
    19    9   10 ar   
    20    9   14 ar   
    21   10   11 ar   
    22   10   76 1    
    23   11   12 ar   
    24   11   48 1    
    25   12   13 ar   
    26   12   77 1    
    27   13   14 ar   
    28   13   15 1    
    29   14   78 1    
    30   15   16 1    
    31   15   79 1    
    32   15   80 1    
    33   16   17 1    
    34   17   18 1    
    35   17   81 1    
    36   17   82 1    
    37   18   19 1    
    38   18   22 1    
    39   18   83 1    
    40   19   20 am   BACKBONE|DICT|INTERRES
    41   19   21 2    
    42   20   84 1    
    43   20   85 1    
    44   22   23 am   BACKBONE|DICT|INTERRES
    45   22   86 1    
    46   23   24 2    
    47   23   25 1    
    48   25   26 1    
    49   25   27 1    
    50   25   87 1    
    51   26   88 1    
    52   26   89 1    
    53   26   90 1    
    54   27   28 am   BACKBONE|DICT|INTERRES
    55   27   91 1    
    56   28   29 2    
    57   28   30 1    
    58   30   31 1    
    59   30   32 1    
    60   30   92 1    
    61   31   93 1    
    62   31   94 1    
    63   31   95 1    
    64   32   33 am   BACKBONE|DICT|INTERRES
    65   32   96 1    
    66   33   34 2    
    67   33   35 1    
    68   35   36 1    
    69   35   37 1    
    70   35   97 1    
    71   36   98 1    
    72   36   99 1    
    73   36  100 1    
    74   37   38 am   BACKBONE|DICT|INTERRES
    75   37  101 1    
    76   38   39 2    
    77   38   40 1    
    78   40   41 1    
    79   40   42 1    
    80   40  102 1    
    81   41  103 1    
    82   41  104 1    
    83   41  105 1    
    84   42   43 am   BACKBONE|DICT|INTERRES
    85   42  106 1    
    86   43   44 2    
    87   43   45 1    
    88   45   46 1    
    89   45   49 1    
    90   45  107 1    
    91   46   47 1    
    92   46  108 1    
    93   46  109 1    
    94   47   48 1    
    95   48  110 1    
    96   48  111 1    
    97   49   50 am   BACKBONE|DICT|INTERRES
    98   49  112 1    
    99   50   51 2    
   100   50   52 1    
   101   52   53 1    
   102   52   54 1    
   103   52  113 1    
   104   53  114 1    
   105   53  115 1    
   106   53  116 1    
   107   54   55 am   BACKBONE|DICT|INTERRES
   108   54  117 1    
   109   55   56 2    
   110   55   57 1    
   111   57   58 1    
   112   57   59 1    
   113   57  118 1    
   114   58  119 1    
   115   58  120 1    
   116   58  121 1    
   117   59   60 am   BACKBONE|DICT|INTERRES
   118   59  122 1    
   119   60   61 2    
   120   60   62 1    
   121   62   63 1    
   122   62   64 1    
   123   62  123 1    
   124   63  124 1    
   125   63  125 1    
   126   63  126 1    
   127   64   65 am   BACKBONE|DICT|INTERRES
   128   64  127 1    
   129   65   66 2    
@<TRIPOS>SUBSTRUCTURE
     1 UNK         1 GROUP             0       ****    0 ROOT    
