@<TRIPOS>MOLECULE
3R135
127   129    1
SMALL
USER_CHARGES


@<TRIPOS>ATOM
      1 CA        -81.9665   25.5090  -70.8293 C.3       0 UNK        -0.1998 
      2 C         -81.2041   26.1711  -71.9668 C.2       0 UNK         0.4909 
      3 O         -80.0658   25.7885  -72.2336 O.2       0 UNK        -0.5240 
      4 N         -81.8245   27.1631  -72.6221 N.am      1 UNK        -0.4739 
      5 CA        -81.3144   27.9064  -73.7858 C.3       1 UNK         0.0864 
      6 C6        -80.0064   28.7021  -73.4912 C.3       11 UNK        -0.0881 
      7 S7        -80.2906   30.0760  -72.3226 S.3       11 UNK        -0.2682 
      8 C8        -79.7165   29.3929  -70.7360 C.3       11 UNK         0.0289 
      9 C9        -78.2041   29.2407  -70.6817 C.ar      11 UNK        -0.0687 
     10 C10       -77.6133   27.9862  -70.8510 C.ar      11 UNK        -0.0823 
     11 C11       -76.2270   27.8345  -70.7667 C.ar      11 UNK        -0.0830 
     12 C12       -75.4262   28.9540  -70.5075 C.ar      11 UNK        -0.1021 
     13 C13       -76.0092   30.2127  -70.3172 C.ar      11 UNK        -0.0753 
     14 C14       -77.3972   30.3488  -70.4139 C.ar      11 UNK        -0.0933 
     15 C15       -75.1641   31.4201  -69.9366 C.3       11 UNK         0.0166 
     16 S16       -74.9696   32.5918  -71.3196 S.3       11 UNK        -0.2615 
     17 C17       -73.2016   32.4174  -71.7470 C.3       11 UNK        -0.0865 
     18 CA        -72.9648   32.0395  -73.2311 C.3       10 UNK         0.0862 
     19 C         -71.4382   32.0347  -73.5401 C.2       10 UNK         0.5551 
     20 N         -70.7963   30.8842  -73.7045 N.am      10 UNK        -0.7319 
     21 O         -70.8287   33.0978  -73.6271 O.2       10 UNK        -0.5018 
     22 N         -73.6675   30.7996  -73.5908 N.am      10 UNK        -0.4509 
     23 C         -73.8274   30.3381  -74.8353 C.2       10 UNK         0.4899 
     24 O         -73.4843   30.9430  -75.8529 O.2       10 UNK        -0.4839 
     25 CA        -74.4572   28.9408  -74.9507 C.3       9 UNK         0.0222 
     26 CB        -75.5939   28.9321  -75.9876 C.3       9 UNK        -0.1966 
     27 N         -73.4670   27.9062  -75.2810 N.am      9 UNK        -0.4218 
     28 C         -72.3605   27.6264  -74.5666 C.2       9 UNK         0.5020 
     29 O         -72.0260   28.2479  -73.5560 O.2       9 UNK        -0.5274 
     30 CA        -71.4649   26.4545  -75.0124 C.3       8 UNK         0.0270 
     31 CB        -71.4465   25.3440  -73.9478 C.3       8 UNK        -0.1976 
     32 N         -71.8534   25.8740  -76.2968 N.am      8 UNK        -0.4313 
     33 C         -71.4711   26.3498  -77.4896 C.2       8 UNK         0.5041 
     34 O         -70.7115   27.3092  -77.6290 O.2       8 UNK        -0.5577 
     35 CA        -72.0266   25.6502  -78.7457 C.3       7 UNK         0.0284 
     36 CB        -70.9585   24.7346  -79.3663 C.3       7 UNK        -0.1958 
     37 N         -73.2512   24.8734  -78.5218 N.am      7 UNK        -0.4454 
     38 C         -74.4190   25.3788  -78.1028 C.2       7 UNK         0.5089 
     39 O         -74.5805   26.5691  -77.8335 O.2       7 UNK        -0.5125 
     40 CA        -75.6022   24.4078  -77.9356 C.3       6 UNK         0.0408 
     41 CB        -75.2797   22.9357  -78.2798 C.3       6 UNK        -0.1791 
     42 N         -76.1989   24.5057  -76.6006 N.am      6 UNK        -0.4762 
     43 C         -75.6027   24.2812  -75.4181 C.2       6 UNK         0.5007 
     44 O         -74.4142   23.9744  -75.3091 O.2       6 UNK        -0.5032 
     45 CA        -76.4886   24.3595  -74.1538 C.3       5 UNK         0.0783 
     46 C46       -76.5074   25.7757  -73.5264 C.3       11 UNK        -0.0857 
     47 S47       -74.9881   26.1254  -72.5759 S.3       11 UNK        -0.2512 
     48 C48       -75.6059   26.4499  -70.8972 C.3       11 UNK         0.0225 
     49 N         -77.8448   23.8898  -74.4590 N.am      5 UNK        -0.4615 
     50 C         -78.3658   22.7288  -74.0375 C.2       4 UNK         0.5053 
     51 O         -77.8031   21.9749  -73.2426 O.2       4 UNK        -0.5105 
     52 CA        -79.7299   22.3042  -74.6188 C.3       4 UNK         0.0263 
     53 CB        -80.8802   22.6569  -73.6650 C.3       4 UNK        -0.1981 
     54 N         -79.9944   22.8795  -75.9398 N.am      4 UNK        -0.4224 
     55 C         -79.3514   22.5098  -77.0571 C.2       3 UNK         0.4895 
     56 O         -78.5658   21.5629  -77.1030 O.2       3 UNK        -0.5091 
     57 CA        -79.5977   23.3251  -78.3418 C.3       3 UNK         0.0250 
     58 CB        -80.4336   22.5085  -79.3413 C.3       3 UNK        -0.1996 
     59 N         -80.2290   24.6380  -78.1592 N.am      3 UNK        -0.4254 
     60 C         -79.7525   25.6592  -77.4335 C.2       2 UNK         0.5004 
     61 O         -78.7352   25.5862  -76.7414 O.2       2 UNK        -0.5226 
     62 CA        -80.5385   26.9851  -77.4720 C.3       2 UNK         0.0269 
     63 CB        -81.9182   26.8879  -78.1647 C.3       2 UNK        -0.1926 
     64 N         -80.6791   27.5849  -76.1394 N.am      2 UNK        -0.4687 
     65 C         -81.2333   27.0207  -75.0548 C.2       1 UNK         0.5165 
     66 O         -81.7216   25.8862  -75.0606 O.2       1 UNK        -0.5079 
     67 H67       -82.9531   25.9495  -70.6868 H         1 UNK         0.0900 
     68 H68       -81.4110   25.6111  -69.8975 H         1 UNK         0.0900 
     69 H69       -82.0951   24.4467  -71.0352 H         1 UNK         0.0900 
     70 H70       -82.7683   27.4027  -72.3533 H         1 UNK         0.2959 
     71 H71       -82.0909   28.6360  -74.0218 H         1 UNK         0.1079 
     72 H72       -79.2114   28.0480  -73.1350 H         1 UNK         0.0837 
     73 H73       -79.6093   29.1691  -74.3926 H         1 UNK         0.0837 
     74 H74       -80.2088   28.4408  -70.5414 H         1 UNK         0.0685 
     75 H75       -80.0373   30.0617  -69.9361 H         1 UNK         0.0685 
     76 H76       -78.2366   27.1223  -71.0324 H         1 UNK         0.1434 
     77 H77       -74.3542   28.8370  -70.4232 H         1 UNK         0.1329 
     78 H78       -77.8523   31.3184  -70.2632 H         1 UNK         0.1335 
     79 H79       -74.1969   31.1044  -69.5445 H         1 UNK         0.0680 
     80 H80       -75.6523   31.9450  -69.1141 H         1 UNK         0.0680 
     81 H81       -72.7203   33.3709  -71.5201 H         1 UNK         0.1032 
     82 H82       -72.7226   31.6833  -71.0974 H         1 UNK         0.1032 
     83 H83       -73.3961   32.8328  -73.8448 H         1 UNK         0.0461 
     84 H84       -71.2915   29.9999  -73.6213 H         1 UNK         0.3453 
     85 H85       -69.8090   30.8921  -73.9033 H         1 UNK         0.3453 
     86 H86       -73.9619   30.2204  -72.8185 H         1 UNK         0.2984 
     87 H87       -74.8939   28.6811  -73.9851 H         1 UNK         0.0554 
     88 H88       -76.3538   29.6740  -75.7391 H         1 UNK         0.0847 
     89 H89       -76.0908   27.9637  -76.0340 H         1 UNK         0.0847 
     90 H90       -75.2274   29.1624  -76.9888 H         1 UNK         0.0847 
     91 H91       -73.6551   27.3647  -76.1176 H         1 UNK         0.3141 
     92 H92       -70.4492   26.8473  -75.0953 H         1 UNK         0.0743 
     93 H93       -71.1116   25.7307  -72.9843 H         1 UNK         0.0784 
     94 H94       -72.4359   24.9129  -73.7957 H         1 UNK         0.0784 
     95 H95       -70.7676   24.5377  -74.2256 H         1 UNK         0.0784 
     96 H96       -72.5024   25.0971  -76.2646 H         1 UNK         0.3213 
     97 H97       -72.2651   26.4351  -79.4669 H         1 UNK         0.0855 
     98 H98       -70.6951   23.9121  -78.7000 H         1 UNK         0.0814 
     99 H99       -70.0425   25.2893  -79.5755 H         1 UNK         0.0814 
    100 H100      -71.2980   24.3090  -80.3108 H         1 UNK         0.0814 
    101 H101      -73.1984   23.8817  -78.7048 H         1 UNK         0.3105 
    102 H102      -76.3684   24.7479  -78.6335 H         1 UNK         0.0547 
    103 H103      -74.5103   22.5168  -77.6302 H         1 UNK         0.0837 
    104 H104      -76.1655   22.3096  -78.1771 H         1 UNK         0.0837 
    105 H105      -74.9425   22.8326  -79.3120 H         1 UNK         0.0837 
    106 H106      -77.1574   24.8527  -76.5949 H         1 UNK         0.3020 
    107 H107      -76.0350   23.6825  -73.4262 H         1 UNK         0.1245 
    108 H108      -77.3608   25.8624  -72.8537 H         1 UNK         0.0781 
    109 H109      -76.6523   26.5481  -74.2820 H         1 UNK         0.0781 
    110 H110      -76.3190   25.6745  -70.6125 H         1 UNK         0.0836 
    111 H111      -74.7726   26.3615  -70.1987 H         1 UNK         0.0836 
    112 H112      -78.3731   24.4498  -75.1194 H         1 UNK         0.3022 
    113 H113      -79.7076   21.2169  -74.7211 H         1 UNK         0.0747 
    114 H114      -80.6860   22.2858  -72.6578 H         1 UNK         0.0793 
    115 H115      -81.8201   22.2171  -73.9987 H         1 UNK         0.0793 
    116 H116      -81.0235   23.7335  -73.5956 H         1 UNK         0.0793 
    117 H117      -80.6186   23.6747  -75.9766 H         1 UNK         0.3047 
    118 H118      -78.6169   23.5024  -78.7875 H         1 UNK         0.0822 
    119 H119      -79.9756   21.5372  -79.5350 H         1 UNK         0.0807 
    120 H120      -80.5179   23.0188  -80.3010 H         1 UNK         0.0807 
    121 H121      -81.4415   22.3241  -78.9673 H         1 UNK         0.0807 
    122 H122      -81.0877   24.7894  -78.6686 H         1 UNK         0.2946 
    123 H123      -79.9234   27.6721  -78.0557 H         1 UNK         0.1144 
    124 H124      -81.8215   26.5922  -79.2102 H         1 UNK         0.0793 
    125 H125      -82.4249   27.8531  -78.1600 H         1 UNK         0.0793 
    126 H126      -82.5766   26.1712  -77.6719 H         1 UNK         0.0793 
    127 H127      -80.2959   28.5148  -76.0470 H         1 UNK         0.2896 
@<TRIPOS>BOND
     1    1    2 1    
     2    1   67 1    
     3    1   68 1    
     4    1   69 1    
     5    2    3 2    
     6    2    4 am   BACKBONE|DICT|INTERRES
     7    4    5 1    
     8    4   70 1    
     9    5    6 1    
    10    5   65 1    
    11    5   71 1    
    12    6    7 1    
    13    6   72 1    
    14    6   73 1    
    15    7    8 1    
    16    8    9 1    
    17    8   74 1    
    18    8   75 1    
    19    9   10 ar   
    20    9   14 ar   
    21   10   11 ar   
    22   10   76 1    
    23   11   12 ar   
    24   11   48 1    
    25   12   13 ar   
    26   12   77 1    
    27   13   14 ar   
    28   13   15 1    
    29   14   78 1    
    30   15   16 1    
    31   15   79 1    
    32   15   80 1    
    33   16   17 1    
    34   17   18 1    
    35   17   81 1    
    36   17   82 1    
    37   18   19 1    
    38   18   22 1    
    39   18   83 1    
    40   19   20 am   BACKBONE|DICT|INTERRES
    41   19   21 2    
    42   20   84 1    
    43   20   85 1    
    44   22   23 am   BACKBONE|DICT|INTERRES
    45   22   86 1    
    46   23   24 2    
    47   23   25 1    
    48   25   26 1    
    49   25   27 1    
    50   25   87 1    
    51   26   88 1    
    52   26   89 1    
    53   26   90 1    
    54   27   28 am   BACKBONE|DICT|INTERRES
    55   27   91 1    
    56   28   29 2    
    57   28   30 1    
    58   30   31 1    
    59   30   32 1    
    60   30   92 1    
    61   31   93 1    
    62   31   94 1    
    63   31   95 1    
    64   32   33 am   BACKBONE|DICT|INTERRES
    65   32   96 1    
    66   33   34 2    
    67   33   35 1    
    68   35   36 1    
    69   35   37 1    
    70   35   97 1    
    71   36   98 1    
    72   36   99 1    
    73   36  100 1    
    74   37   38 am   BACKBONE|DICT|INTERRES
    75   37  101 1    
    76   38   39 2    
    77   38   40 1    
    78   40   41 1    
    79   40   42 1    
    80   40  102 1    
    81   41  103 1    
    82   41  104 1    
    83   41  105 1    
    84   42   43 am   BACKBONE|DICT|INTERRES
    85   42  106 1    
    86   43   44 2    
    87   43   45 1    
    88   45   46 1    
    89   45   49 1    
    90   45  107 1    
    91   46   47 1    
    92   46  108 1    
    93   46  109 1    
    94   47   48 1    
    95   48  110 1    
    96   48  111 1    
    97   49   50 am   BACKBONE|DICT|INTERRES
    98   49  112 1    
    99   50   51 2    
   100   50   52 1    
   101   52   53 1    
   102   52   54 1    
   103   52  113 1    
   104   53  114 1    
   105   53  115 1    
   106   53  116 1    
   107   54   55 am   BACKBONE|DICT|INTERRES
   108   54  117 1    
   109   55   56 2    
   110   55   57 1    
   111   57   58 1    
   112   57   59 1    
   113   57  118 1    
   114   58  119 1    
   115   58  120 1    
   116   58  121 1    
   117   59   60 am   BACKBONE|DICT|INTERRES
   118   59  122 1    
   119   60   61 2    
   120   60   62 1    
   121   62   63 1    
   122   62   64 1    
   123   62  123 1    
   124   63  124 1    
   125   63  125 1    
   126   63  126 1    
   127   64   65 am   BACKBONE|DICT|INTERRES
   128   64  127 1    
   129   65   66 2    
@<TRIPOS>SUBSTRUCTURE
     1 UNK         1 GROUP             0       ****    0 ROOT    
