@<TRIPOS>MOLECULE
3R135
127   129    1
SMALL
USER_CHARGES


@<TRIPOS>ATOM
      1 CA        -82.8673   26.8342  -73.9245 C.3       0 UNK        -0.1998 
      2 C         -81.8590   26.9103  -75.0602 C.2       0 UNK         0.4909 
      3 O         -82.1748   26.5006  -76.1774 O.2       0 UNK        -0.5240 
      4 N         -80.6536   27.4260  -74.7746 N.am      1 UNK        -0.4739 
      5 CA        -79.5266   27.6278  -75.6965 C.3       1 UNK         0.0864 
      6 C6        -78.2862   28.1912  -74.9586 C.3       11 UNK        -0.0881 
      7 S7        -78.5535   29.8658  -74.2824 S.3       11 UNK        -0.2682 
      8 C8        -78.6883   29.5802  -72.4857 C.3       11 UNK         0.0289 
      9 C9        -77.4840   28.8487  -71.9066 C.ar      11 UNK        -0.0687 
     10 C10       -77.6294   27.5513  -71.4085 C.ar      11 UNK        -0.0823 
     11 C11       -76.5331   26.8597  -70.8867 C.ar      11 UNK        -0.0830 
     12 C12       -75.2866   27.4927  -70.8312 C.ar      11 UNK        -0.1021 
     13 C13       -75.1255   28.7879  -71.3327 C.ar      11 UNK        -0.0753 
     14 C14       -76.2275   29.4602  -71.8713 C.ar      11 UNK        -0.0933 
     15 C15       -73.7542   29.4446  -71.3326 C.3       11 UNK         0.0166 
     16 S16       -73.6845   30.8654  -70.1979 S.3       11 UNK        -0.2615 
     17 C17       -71.9189   31.3229  -70.2978 C.3       11 UNK        -0.0865 
     18 CA        -71.6544   32.5631  -71.2046 C.3       10 UNK         0.0862 
     19 C         -70.2134   33.1383  -71.0309 C.2       10 UNK         0.5551 
     20 N         -69.6033   33.7119  -72.0612 N.am      10 UNK        -0.7319 
     21 O         -69.6495   33.0971  -69.9398 O.2       10 UNK        -0.5018 
     22 N         -72.0706   32.3560  -72.6065 N.am      10 UNK        -0.4509 
     23 C         -71.5557   31.4553  -73.4529 C.2       10 UNK         0.4899 
     24 O         -70.6366   30.6824  -73.1724 O.2       10 UNK        -0.4839 
     25 CA        -72.1640   31.4199  -74.8601 C.3       9 UNK         0.0222 
     26 CB        -71.3268   32.2726  -75.8278 C.3       9 UNK        -0.1966 
     27 N         -72.1822   30.0352  -75.3305 N.am      9 UNK        -0.4218 
     28 C         -73.2717   29.2627  -75.3949 C.2       9 UNK         0.5020 
     29 O         -74.4158   29.6566  -75.1558 O.2       9 UNK        -0.5274 
     30 CA        -73.0290   27.7805  -75.7324 C.3       8 UNK         0.0270 
     31 CB        -72.7909   26.9840  -74.4385 C.3       8 UNK        -0.1976 
     32 N         -74.1595   27.1927  -76.4541 N.am      8 UNK        -0.4313 
     33 C         -74.5345   27.5327  -77.6947 C.2       8 UNK         0.5041 
     34 O         -73.8841   28.2863  -78.4224 O.2       8 UNK        -0.5577 
     35 CA        -75.8725   26.9486  -78.1866 C.3       7 UNK         0.0284 
     36 CB        -76.1050   27.1322  -79.7025 C.3       7 UNK        -0.1958 
     37 N         -76.0838   25.5545  -77.7756 N.am      7 UNK        -0.4454 
     38 C         -75.4096   24.4720  -78.1918 C.2       7 UNK         0.5089 
     39 O         -74.4626   24.5046  -78.9790 O.2       7 UNK        -0.5125 
     40 CA        -75.9056   23.1220  -77.6300 C.3       6 UNK         0.0408 
     41 CB        -74.9161   21.9647  -77.8843 C.3       6 UNK        -0.1791 
     42 N         -76.2793   23.1893  -76.2092 N.am      6 UNK        -0.4762 
     43 C         -75.4725   23.5338  -75.1924 C.2       6 UNK         0.5007 
     44 O         -74.2911   23.8408  -75.3525 O.2       6 UNK        -0.5032 
     45 CA        -76.0729   23.5463  -73.7706 C.3       5 UNK         0.0783 
     46 C46       -75.4295   24.6411  -72.8736 C.3       11 UNK        -0.0857 
     47 S47       -75.4880   24.2509  -71.0898 S.3       11 UNK        -0.2512 
     48 C48       -76.7098   25.4231  -70.4067 C.3       11 UNK         0.0225 
     49 N         -77.5363   23.6727  -73.8209 N.am      5 UNK        -0.4615 
     50 C         -78.3878   22.9363  -73.0971 C.2       4 UNK         0.5053 
     51 O         -78.0460   21.9926  -72.3846 O.2       4 UNK        -0.5105 
     52 CA        -79.8717   23.3205  -73.1610 C.3       4 UNK         0.0263 
     53 CB        -80.1186   24.6734  -72.4748 C.3       4 UNK        -0.1981 
     54 N         -80.3758   23.3781  -74.5348 N.am      4 UNK        -0.4224 
     55 C         -81.2069   22.4706  -75.0689 C.2       3 UNK         0.4895 
     56 O         -81.5356   21.4285  -74.5002 O.2       3 UNK        -0.5091 
     57 CA        -81.8202   22.7744  -76.4483 C.3       3 UNK         0.0250 
     58 CB        -83.3143   23.1110  -76.3044 C.3       3 UNK        -0.1996 
     59 N         -81.1590   23.8761  -77.1484 N.am      3 UNK        -0.4254 
     60 C         -80.0778   23.7320  -77.9253 C.2       2 UNK         0.5004 
     61 O         -79.5276   22.6532  -78.1434 O.2       2 UNK        -0.5226 
     62 CA        -79.4901   25.0126  -78.5423 C.3       2 UNK         0.0269 
     63 CB        -80.1323   25.2922  -79.9099 C.3       2 UNK        -0.1926 
     64 N         -79.6304   26.2002  -77.6915 N.am      2 UNK        -0.4687 
     65 C         -79.1567   26.3315  -76.4446 C.2       1 UNK         0.5165 
     66 O         -78.4772   25.4700  -75.8772 O.2       1 UNK        -0.5079 
     67 H67       -83.7469   27.4299  -74.1664 H         1 UNK         0.0900 
     68 H68       -83.1864   25.8032  -73.7747 H         1 UNK         0.0900 
     69 H69       -82.4556   27.2032  -72.9853 H         1 UNK         0.0900 
     70 H70       -80.4855   27.7553  -73.8364 H         1 UNK         0.2959 
     71 H71       -79.8422   28.3655  -76.4373 H         1 UNK         0.1079 
     72 H72       -77.4365   28.2724  -75.6376 H         1 UNK         0.0837 
     73 H73       -77.9638   27.5066  -74.1739 H         1 UNK         0.0837 
     74 H74       -79.6103   29.0348  -72.2805 H         1 UNK         0.0685 
     75 H75       -78.7904   30.5445  -71.9861 H         1 UNK         0.0685 
     76 H76       -78.5985   27.0743  -71.4390 H         1 UNK         0.1434 
     77 H77       -74.4361   26.9618  -70.4257 H         1 UNK         0.1329 
     78 H78       -76.1043   30.4575  -72.2712 H         1 UNK         0.1335 
     79 H79       -72.9821   28.7236  -71.0595 H         1 UNK         0.0680 
     80 H80       -73.5284   29.7733  -72.3456 H         1 UNK         0.0680 
     81 H81       -71.5993   31.5283  -69.2746 H         1 UNK         0.1032 
     82 H82       -71.3235   30.4680  -70.6210 H         1 UNK         0.1032 
     83 H83       -72.2987   33.3626  -70.8370 H         1 UNK         0.0461 
     84 H84       -68.6776   34.0914  -71.9391 H         1 UNK         0.3453 
     85 H85       -70.0579   33.7642  -72.9581 H         1 UNK         0.3453 
     86 H86       -72.8116   32.9610  -72.9308 H         1 UNK         0.2984 
     87 H87       -73.1766   31.8277  -74.8240 H         1 UNK         0.0554 
     88 H88       -71.3125   33.3179  -75.5166 H         1 UNK         0.0847 
     89 H89       -71.7376   32.2424  -76.8372 H         1 UNK         0.0847 
     90 H90       -70.2914   31.9327  -75.8780 H         1 UNK         0.0847 
     91 H91       -71.2756   29.6081  -75.4621 H         1 UNK         0.3141 
     92 H92       -72.1437   27.6996  -76.3669 H         1 UNK         0.0743 
     93 H93       -71.9267   27.3683  -73.8948 H         1 UNK         0.0784 
     94 H94       -72.5981   25.9316  -74.6479 H         1 UNK         0.0784 
     95 H95       -73.6482   27.0450  -73.7664 H         1 UNK         0.0784 
     96 H96       -74.7385   26.5499  -75.9358 H         1 UNK         0.3213 
     97 H97       -76.6433   27.5321  -77.6850 H         1 UNK         0.0855 
     98 H98       -75.3335   26.6413  -80.2960 H         1 UNK         0.0814 
     99 H99       -76.0938   28.1889  -79.9723 H         1 UNK         0.0814 
    100 H100      -77.0714   26.7325  -80.0087 H         1 UNK         0.0814 
    101 H101      -76.8209   25.4012  -77.0953 H         1 UNK         0.3105 
    102 H102      -76.8201   22.8880  -78.1753 H         1 UNK         0.0547 
    103 H103      -75.3000   21.0215  -77.4963 H         1 UNK         0.0837 
    104 H104      -73.9464   22.1492  -77.4210 H         1 UNK         0.0837 
    105 H105      -74.7429   21.8269  -78.9522 H         1 UNK         0.0837 
    106 H106      -77.2387   22.9550  -75.9931 H         1 UNK         0.3020 
    107 H107      -75.8016   22.5701  -73.3620 H         1 UNK         0.1245 
    108 H108      -75.8742   25.6129  -73.0880 H         1 UNK         0.0781 
    109 H109      -74.3655   24.7592  -73.0816 H         1 UNK         0.0781 
    110 H110      -76.6428   25.4049  -69.3183 H         1 UNK         0.0836 
    111 H111      -77.7027   25.0520  -70.6557 H         1 UNK         0.0836 
    112 H112      -77.8955   24.4099  -74.4216 H         1 UNK         0.3022 
    113 H113      -80.4233   22.5701  -72.5901 H         1 UNK         0.0747 
    114 H114      -81.1773   24.9288  -72.4837 H         1 UNK         0.0793 
    115 H115      -79.8143   24.6392  -71.4291 H         1 UNK         0.0793 
    116 H116      -79.5704   25.4821  -72.9578 H         1 UNK         0.0793 
    117 H117      -80.0973   24.1714  -75.0961 H         1 UNK         0.3047 
    118 H118      -81.7367   21.8650  -77.0478 H         1 UNK         0.0822 
    119 H119      -83.7790   23.2743  -77.2769 H         1 UNK         0.0807 
    120 H120      -83.4708   24.0079  -75.7040 H         1 UNK         0.0807 
    121 H121      -83.8557   22.2964  -75.8212 H         1 UNK         0.0807 
    122 H122      -81.5388   24.8081  -77.0008 H         1 UNK         0.2946 
    123 H123      -78.4302   24.8296  -78.7080 H         1 UNK         0.1144 
    124 H124      -79.6597   26.1407  -80.4051 H         1 UNK         0.0793 
    125 H125      -81.1982   25.5062  -79.8196 H         1 UNK         0.0793 
    126 H126      -80.0273   24.4329  -80.5740 H         1 UNK         0.0793 
    127 H127      -80.2221   26.9346  -78.0546 H         1 UNK         0.2896 
@<TRIPOS>BOND
     1    1    2 1    
     2    1   67 1    
     3    1   68 1    
     4    1   69 1    
     5    2    3 2    
     6    2    4 am   BACKBONE|DICT|INTERRES
     7    4    5 1    
     8    4   70 1    
     9    5    6 1    
    10    5   65 1    
    11    5   71 1    
    12    6    7 1    
    13    6   72 1    
    14    6   73 1    
    15    7    8 1    
    16    8    9 1    
    17    8   74 1    
    18    8   75 1    
    19    9   10 ar   
    20    9   14 ar   
    21   10   11 ar   
    22   10   76 1    
    23   11   12 ar   
    24   11   48 1    
    25   12   13 ar   
    26   12   77 1    
    27   13   14 ar   
    28   13   15 1    
    29   14   78 1    
    30   15   16 1    
    31   15   79 1    
    32   15   80 1    
    33   16   17 1    
    34   17   18 1    
    35   17   81 1    
    36   17   82 1    
    37   18   19 1    
    38   18   22 1    
    39   18   83 1    
    40   19   20 am   BACKBONE|DICT|INTERRES
    41   19   21 2    
    42   20   84 1    
    43   20   85 1    
    44   22   23 am   BACKBONE|DICT|INTERRES
    45   22   86 1    
    46   23   24 2    
    47   23   25 1    
    48   25   26 1    
    49   25   27 1    
    50   25   87 1    
    51   26   88 1    
    52   26   89 1    
    53   26   90 1    
    54   27   28 am   BACKBONE|DICT|INTERRES
    55   27   91 1    
    56   28   29 2    
    57   28   30 1    
    58   30   31 1    
    59   30   32 1    
    60   30   92 1    
    61   31   93 1    
    62   31   94 1    
    63   31   95 1    
    64   32   33 am   BACKBONE|DICT|INTERRES
    65   32   96 1    
    66   33   34 2    
    67   33   35 1    
    68   35   36 1    
    69   35   37 1    
    70   35   97 1    
    71   36   98 1    
    72   36   99 1    
    73   36  100 1    
    74   37   38 am   BACKBONE|DICT|INTERRES
    75   37  101 1    
    76   38   39 2    
    77   38   40 1    
    78   40   41 1    
    79   40   42 1    
    80   40  102 1    
    81   41  103 1    
    82   41  104 1    
    83   41  105 1    
    84   42   43 am   BACKBONE|DICT|INTERRES
    85   42  106 1    
    86   43   44 2    
    87   43   45 1    
    88   45   46 1    
    89   45   49 1    
    90   45  107 1    
    91   46   47 1    
    92   46  108 1    
    93   46  109 1    
    94   47   48 1    
    95   48  110 1    
    96   48  111 1    
    97   49   50 am   BACKBONE|DICT|INTERRES
    98   49  112 1    
    99   50   51 2    
   100   50   52 1    
   101   52   53 1    
   102   52   54 1    
   103   52  113 1    
   104   53  114 1    
   105   53  115 1    
   106   53  116 1    
   107   54   55 am   BACKBONE|DICT|INTERRES
   108   54  117 1    
   109   55   56 2    
   110   55   57 1    
   111   57   58 1    
   112   57   59 1    
   113   57  118 1    
   114   58  119 1    
   115   58  120 1    
   116   58  121 1    
   117   59   60 am   BACKBONE|DICT|INTERRES
   118   59  122 1    
   119   60   61 2    
   120   60   62 1    
   121   62   63 1    
   122   62   64 1    
   123   62  123 1    
   124   63  124 1    
   125   63  125 1    
   126   63  126 1    
   127   64   65 am   BACKBONE|DICT|INTERRES
   128   64  127 1    
   129   65   66 2    
@<TRIPOS>SUBSTRUCTURE
     1 UNK         1 GROUP             0       ****    0 ROOT    
