@<TRIPOS>MOLECULE
3R135
127   129    1
SMALL
USER_CHARGES


@<TRIPOS>ATOM
      1 CA        -78.8262   21.3482  -70.3672 C.3       0 UNK        -0.1998 
      2 C         -79.3273   22.3269  -71.4180 C.2       0 UNK         0.4909 
      3 O         -80.4839   22.2455  -71.8328 O.2       0 UNK        -0.5240 
      4 N         -78.4622   23.2441  -71.8680 N.am      1 UNK        -0.4739 
      5 CA        -78.7483   24.3145  -72.8388 C.3       1 UNK         0.0864 
      6 C6        -77.7937   25.5245  -72.6428 C.3       11 UNK        -0.0881 
      7 S7        -77.8151   26.1359  -70.9213 S.3       11 UNK        -0.2682 
      8 C8        -78.6151   27.7650  -71.0947 C.3       11 UNK         0.0289 
      9 C9        -77.6814   28.8224  -71.6720 C.ar      11 UNK        -0.0687 
     10 C10       -78.1095   29.6398  -72.7222 C.ar      11 UNK        -0.0823 
     11 C11       -77.2590   30.6109  -73.2632 C.ar      11 UNK        -0.0830 
     12 C12       -75.9709   30.7564  -72.7409 C.ar      11 UNK        -0.1021 
     13 C13       -75.5371   29.9661  -71.6706 C.ar      11 UNK        -0.0753 
     14 C14       -76.4006   29.0055  -71.1402 C.ar      11 UNK        -0.0933 
     15 C15       -74.1241   30.0965  -71.1152 C.3       11 UNK         0.0166 
     16 S16       -73.5857   31.8264  -70.9088 S.3       11 UNK        -0.2615 
     17 C17       -71.7753   31.6367  -71.0277 C.3       11 UNK        -0.0865 
     18 CA        -71.2469   31.8686  -72.4697 C.3       10 UNK         0.0862 
     19 C         -69.6983   31.9158  -72.4773 C.2       10 UNK         0.5551 
     20 N         -69.1126   33.0930  -72.3101 N.am      10 UNK        -0.7319 
     21 O         -69.0255   30.8929  -72.5979 O.2       10 UNK        -0.5018 
     22 N         -71.7162   30.8247  -73.3922 N.am      10 UNK        -0.4509 
     23 C         -72.5256   31.0081  -74.4428 C.2       10 UNK         0.4899 
     24 O         -73.0081   32.0968  -74.7556 O.2       10 UNK        -0.4839 
     25 CA        -72.8651   29.7767  -75.3014 C.3       9 UNK         0.0222 
     26 CB        -72.0756   29.8126  -76.6207 C.3       9 UNK        -0.1966 
     27 N         -72.5907   28.5079  -74.6150 N.am      9 UNK        -0.4218 
     28 C         -73.5332   27.6643  -74.1776 C.2       9 UNK         0.5020 
     29 O         -74.7463   27.8419  -74.3019 O.2       9 UNK        -0.5274 
     30 CA        -73.0499   26.3858  -73.4891 C.3       8 UNK         0.0270 
     31 CB        -73.1834   26.4877  -71.9589 C.3       8 UNK        -0.1976 
     32 N         -73.8874   25.3101  -73.9978 N.am      8 UNK        -0.4313 
     33 C         -73.5537   24.0202  -74.1007 C.2       8 UNK         0.5041 
     34 O         -72.5070   23.5426  -73.6611 O.2       8 UNK        -0.5577 
     35 CA        -74.5499   23.1102  -74.8425 C.3       7 UNK         0.0284 
     36 CB        -75.4632   22.3814  -73.8455 C.3       7 UNK        -0.1958 
     37 N         -75.3548   23.8477  -75.8273 N.am      7 UNK        -0.4454 
     38 C         -74.8667   24.2650  -77.0059 C.2       7 UNK         0.5089 
     39 O         -73.7258   24.0141  -77.3956 O.2       7 UNK        -0.5125 
     40 CA        -75.7769   25.1188  -77.8974 C.3       6 UNK         0.0408 
     41 CB        -76.6315   24.2400  -78.8181 C.3       6 UNK        -0.1791 
     42 N         -76.6468   26.0103  -77.1249 N.am      6 UNK        -0.4762 
     43 C         -76.4514   27.3325  -77.0155 C.2       6 UNK         0.5007 
     44 O         -75.4918   27.9149  -77.5259 O.2       6 UNK        -0.5032 
     45 CA        -77.5363   28.1442  -76.2787 C.3       5 UNK         0.0783 
     46 C46       -77.3404   29.6763  -76.4754 C.3       11 UNK        -0.0857 
     47 S47       -78.6378   30.7103  -75.7136 S.3       11 UNK        -0.2512 
     48 C48       -77.7273   31.5456  -74.3745 C.3       11 UNK         0.0225 
     49 N         -78.8500   27.6846  -76.7381 N.am      5 UNK        -0.4615 
     50 C         -79.9150   27.4568  -75.9648 C.2       4 UNK         0.5053 
     51 O         -79.9020   27.4976  -74.7355 O.2       4 UNK        -0.5105 
     52 CA        -81.2365   27.1516  -76.6860 C.3       4 UNK         0.0263 
     53 CB        -81.6791   28.3122  -77.6013 C.3       4 UNK        -0.1981 
     54 N         -81.2279   25.8679  -77.3907 N.am      4 UNK        -0.4224 
     55 C         -80.5197   25.4874  -78.4617 C.2       3 UNK         0.4895 
     56 O         -79.7324   26.2153  -79.0696 O.2       3 UNK        -0.5091 
     57 CA        -80.7140   24.0182  -78.8892 C.3       3 UNK         0.0250 
     58 CB        -80.1711   23.7267  -80.3003 C.3       3 UNK        -0.1996 
     59 N         -80.0953   23.0989  -77.9289 N.am      3 UNK        -0.4254 
     60 C         -80.5638   22.8422  -76.7000 C.2       2 UNK         0.5004 
     61 O         -81.6336   23.2888  -76.2777 O.2       2 UNK        -0.5226 
     62 CA        -79.7170   21.9604  -75.7675 C.3       2 UNK         0.0269 
     63 CB        -78.4144   21.4005  -76.3830 C.3       2 UNK        -0.1926 
     64 N         -79.4573   22.6564  -74.5038 N.am      2 UNK        -0.4687 
     65 C         -78.7623   23.7851  -74.2954 C.2       1 UNK         0.5165 
     66 O         -78.1250   24.3698  -75.1777 O.2       1 UNK        -0.5079 
     67 H67       -77.7858   21.5334  -70.1009 H         1 UNK         0.0900 
     68 H68       -79.4276   21.4301  -69.4623 H         1 UNK         0.0900 
     69 H69       -78.9050   20.3267  -70.7382 H         1 UNK         0.0900 
     70 H70       -77.5304   23.2619  -71.4799 H         1 UNK         0.2959 
     71 H71       -79.7614   24.6773  -72.6500 H         1 UNK         0.1079 
     72 H72       -78.0578   26.3397  -73.3171 H         1 UNK         0.0837 
     73 H73       -76.7657   25.2585  -72.8902 H         1 UNK         0.0837 
     74 H74       -79.5132   27.6571  -71.7055 H         1 UNK         0.0685 
     75 H75       -78.9470   28.0975  -70.1105 H         1 UNK         0.0685 
     76 H76       -79.1071   29.5193  -73.1220 H         1 UNK         0.1434 
     77 H77       -75.3041   31.4963  -73.1617 H         1 UNK         0.1329 
     78 H78       -76.0694   28.3813  -70.3219 H         1 UNK         0.1335 
     79 H79       -73.4535   29.5746  -71.7947 H         1 UNK         0.0680 
     80 H80       -74.0374   29.5929  -70.1511 H         1 UNK         0.0680 
     81 H81       -71.4783   30.6552  -70.6529 H         1 UNK         0.1032 
     82 H82       -71.3333   32.3628  -70.3424 H         1 UNK         0.1032 
     83 H83       -71.6019   32.8442  -72.8084 H         1 UNK         0.0461 
     84 H84       -69.6557   33.9358  -72.2011 H         1 UNK         0.3453 
     85 H85       -68.1056   33.1422  -72.2988 H         1 UNK         0.3453 
     86 H86       -71.3079   29.9157  -73.2391 H         1 UNK         0.2984 
     87 H87       -73.9262   29.8488  -75.5492 H         1 UNK         0.0554 
     88 H88       -72.2688   30.7370  -77.1670 H         1 UNK         0.0847 
     89 H89       -72.3643   28.9883  -77.2735 H         1 UNK         0.0847 
     90 H90       -70.9996   29.7506  -76.4537 H         1 UNK         0.0847 
     91 H91       -71.6200   28.2514  -74.5035 H         1 UNK         0.3141 
     92 H92       -72.0091   26.1938  -73.7588 H         1 UNK         0.0743 
     93 H93       -74.2082   26.7142  -71.6596 H         1 UNK         0.0784 
     94 H94       -72.8917   25.5571  -71.4720 H         1 UNK         0.0784 
     95 H95       -72.5423   27.2751  -71.5621 H         1 UNK         0.0784 
     96 H96       -74.7500   25.6351  -74.4165 H         1 UNK         0.3213 
     97 H97       -73.9694   22.3527  -75.3743 H         1 UNK         0.0855 
     98 H98       -76.0014   23.0795  -73.2090 H         1 UNK         0.0814 
     99 H99       -74.8783   21.7357  -73.1892 H         1 UNK         0.0814 
    100 H100      -76.1914   21.7503  -74.3533 H         1 UNK         0.0814 
    101 H101      -76.3163   24.0703  -75.5816 H         1 UNK         0.3105 
    102 H102      -75.1190   25.7011  -78.5460 H         1 UNK         0.0547 
    103 H103      -76.0183   23.5180  -79.3592 H         1 UNK         0.0837 
    104 H104      -77.3838   23.6863  -78.2627 H         1 UNK         0.0837 
    105 H105      -77.1441   24.8512  -79.5605 H         1 UNK         0.0837 
    106 H106      -77.4360   25.5888  -76.6441 H         1 UNK         0.3020 
    107 H107      -77.4158   27.9212  -75.2157 H         1 UNK         0.1245 
    108 H108      -77.3211   29.9209  -77.5390 H         1 UNK         0.0781 
    109 H109      -76.3697   29.9804  -76.0792 H         1 UNK         0.0781 
    110 H110      -78.3776   32.3022  -73.9340 H         1 UNK         0.0836 
    111 H111      -76.8841   32.0843  -74.8105 H         1 UNK         0.0836 
    112 H112      -78.9474   27.5190  -77.7352 H         1 UNK         0.3022 
    113 H113      -81.9961   27.0514  -75.9088 H         1 UNK         0.0747 
    114 H114      -82.6699   28.1302  -78.0173 H         1 UNK         0.0793 
    115 H115      -81.7286   29.2474  -77.0418 H         1 UNK         0.0793 
    116 H116      -80.9930   28.4723  -78.4331 H         1 UNK         0.0793 
    117 H117      -81.7429   25.1246  -76.9250 H         1 UNK         0.3047 
    118 H118      -81.7893   23.8260  -78.9105 H         1 UNK         0.0822 
    119 H119      -80.4053   22.7085  -80.6113 H         1 UNK         0.0807 
    120 H120      -79.0914   23.8537  -80.3609 H         1 UNK         0.0807 
    121 H121      -80.6180   24.3984  -81.0345 H         1 UNK         0.0807 
    122 H122      -79.2111   22.6944  -78.1970 H         1 UNK         0.2946 
    123 H123      -80.3514   21.1066  -75.5232 H         1 UNK         0.1144 
    124 H124      -77.9476   20.6866  -75.7046 H         1 UNK         0.0793 
    125 H125      -77.6796   22.1758  -76.5898 H         1 UNK         0.0793 
    126 H126      -78.6094   20.8632  -77.3120 H         1 UNK         0.0793 
    127 H127      -79.9556   22.2916  -73.6962 H         1 UNK         0.2896 
@<TRIPOS>BOND
     1    1    2 1    
     2    1   67 1    
     3    1   68 1    
     4    1   69 1    
     5    2    3 2    
     6    2    4 am   BACKBONE|DICT|INTERRES
     7    4    5 1    
     8    4   70 1    
     9    5    6 1    
    10    5   65 1    
    11    5   71 1    
    12    6    7 1    
    13    6   72 1    
    14    6   73 1    
    15    7    8 1    
    16    8    9 1    
    17    8   74 1    
    18    8   75 1    
    19    9   10 ar   
    20    9   14 ar   
    21   10   11 ar   
    22   10   76 1    
    23   11   12 ar   
    24   11   48 1    
    25   12   13 ar   
    26   12   77 1    
    27   13   14 ar   
    28   13   15 1    
    29   14   78 1    
    30   15   16 1    
    31   15   79 1    
    32   15   80 1    
    33   16   17 1    
    34   17   18 1    
    35   17   81 1    
    36   17   82 1    
    37   18   19 1    
    38   18   22 1    
    39   18   83 1    
    40   19   20 am   BACKBONE|DICT|INTERRES
    41   19   21 2    
    42   20   84 1    
    43   20   85 1    
    44   22   23 am   BACKBONE|DICT|INTERRES
    45   22   86 1    
    46   23   24 2    
    47   23   25 1    
    48   25   26 1    
    49   25   27 1    
    50   25   87 1    
    51   26   88 1    
    52   26   89 1    
    53   26   90 1    
    54   27   28 am   BACKBONE|DICT|INTERRES
    55   27   91 1    
    56   28   29 2    
    57   28   30 1    
    58   30   31 1    
    59   30   32 1    
    60   30   92 1    
    61   31   93 1    
    62   31   94 1    
    63   31   95 1    
    64   32   33 am   BACKBONE|DICT|INTERRES
    65   32   96 1    
    66   33   34 2    
    67   33   35 1    
    68   35   36 1    
    69   35   37 1    
    70   35   97 1    
    71   36   98 1    
    72   36   99 1    
    73   36  100 1    
    74   37   38 am   BACKBONE|DICT|INTERRES
    75   37  101 1    
    76   38   39 2    
    77   38   40 1    
    78   40   41 1    
    79   40   42 1    
    80   40  102 1    
    81   41  103 1    
    82   41  104 1    
    83   41  105 1    
    84   42   43 am   BACKBONE|DICT|INTERRES
    85   42  106 1    
    86   43   44 2    
    87   43   45 1    
    88   45   46 1    
    89   45   49 1    
    90   45  107 1    
    91   46   47 1    
    92   46  108 1    
    93   46  109 1    
    94   47   48 1    
    95   48  110 1    
    96   48  111 1    
    97   49   50 am   BACKBONE|DICT|INTERRES
    98   49  112 1    
    99   50   51 2    
   100   50   52 1    
   101   52   53 1    
   102   52   54 1    
   103   52  113 1    
   104   53  114 1    
   105   53  115 1    
   106   53  116 1    
   107   54   55 am   BACKBONE|DICT|INTERRES
   108   54  117 1    
   109   55   56 2    
   110   55   57 1    
   111   57   58 1    
   112   57   59 1    
   113   57  118 1    
   114   58  119 1    
   115   58  120 1    
   116   58  121 1    
   117   59   60 am   BACKBONE|DICT|INTERRES
   118   59  122 1    
   119   60   61 2    
   120   60   62 1    
   121   62   63 1    
   122   62   64 1    
   123   62  123 1    
   124   63  124 1    
   125   63  125 1    
   126   63  126 1    
   127   64   65 am   BACKBONE|DICT|INTERRES
   128   64  127 1    
   129   65   66 2    
@<TRIPOS>SUBSTRUCTURE
     1 UNK         1 GROUP             0       ****    0 ROOT    
