@<TRIPOS>MOLECULE
3R135
127   129    1
SMALL
USER_CHARGES


@<TRIPOS>ATOM
      1 CA        -80.4957   24.1990  -68.4031 C.3       0 UNK        -0.1998 
      2 C         -81.3237   24.3132  -69.6740 C.2       0 UNK         0.4909 
      3 O         -82.2560   23.5340  -69.8711 O.2       0 UNK        -0.5240 
      4 N         -80.9844   25.2728  -70.5441 N.am      1 UNK        -0.4739 
      5 CA        -81.6648   25.5419  -71.8188 C.3       1 UNK         0.0864 
      6 C6        -81.5916   27.0451  -72.1976 C.3       11 UNK        -0.0881 
      7 S7        -79.8991   27.7222  -72.3064 S.3       11 UNK        -0.2682 
      8 C8        -80.2908   29.4753  -72.6024 C.3       11 UNK         0.0289 
      9 C9        -79.0348   30.3174  -72.7772 C.ar      11 UNK        -0.0687 
     10 C10       -78.6439   30.7558  -74.0471 C.ar      11 UNK        -0.0823 
     11 C11       -77.4928   31.5332  -74.2101 C.ar      11 UNK        -0.0830 
     12 C12       -76.7492   31.8974  -73.0837 C.ar      11 UNK        -0.1021 
     13 C13       -77.1283   31.4665  -71.8097 C.ar      11 UNK        -0.0753 
     14 C14       -78.2730   30.6776  -71.6619 C.ar      11 UNK        -0.0933 
     15 C15       -76.3016   31.8640  -70.5963 C.3       11 UNK         0.0166 
     16 S16       -74.6837   31.0309  -70.5721 S.3       11 UNK        -0.2615 
     17 C17       -75.1611   29.3144  -70.1768 C.3       11 UNK        -0.0865 
     18 CA        -74.1334   28.2841  -70.7150 C.3       10 UNK         0.0862 
     19 C         -74.3475   26.8539  -70.1379 C.2       10 UNK         0.5551 
     20 N         -73.4437   25.9236  -70.4120 N.am      10 UNK        -0.7319 
     21 O         -75.3224   26.5803  -69.4416 O.2       10 UNK        -0.5018 
     22 N         -74.0630   28.3043  -72.1868 N.am      10 UNK        -0.4509 
     23 C         -73.0171   27.9005  -72.9140 C.2       10 UNK         0.4899 
     24 O         -71.9680   27.4636  -72.4321 O.2       10 UNK        -0.4839 
     25 CA        -73.1476   28.0054  -74.4371 C.3       9 UNK         0.0222 
     26 CB        -72.4048   29.2488  -74.9544 C.3       9 UNK        -0.1966 
     27 N         -72.5518   26.8042  -75.0140 N.am      9 UNK        -0.4218 
     28 C         -73.1311   25.9910  -75.9010 C.2       9 UNK         0.5020 
     29 O         -74.2252   26.2024  -76.4380 O.2       9 UNK        -0.5274 
     30 CA        -72.3663   24.7012  -76.2218 C.3       8 UNK         0.0270 
     31 CB        -72.5589   23.6494  -75.1151 C.3       8 UNK        -0.1976 
     32 N         -72.8820   24.1828  -77.4799 N.am      8 UNK        -0.4313 
     33 C         -72.1816   23.5796  -78.4453 C.2       8 UNK         0.5041 
     34 O         -70.9981   23.2558  -78.3366 O.2       8 UNK        -0.5577 
     35 CA        -72.9262   23.3027  -79.7676 C.3       7 UNK         0.0284 
     36 CB        -73.3538   21.8278  -79.8456 C.3       7 UNK        -0.1958 
     37 N         -74.1054   24.1580  -79.9574 N.am      7 UNK        -0.4454 
     38 C         -74.0608   25.4815  -80.1694 C.2       7 UNK         0.5089 
     39 O         -73.0126   26.1101  -80.3237 O.2       7 UNK        -0.5125 
     40 CA        -75.3914   26.2480  -80.1620 C.3       6 UNK         0.0408 
     41 CB        -76.6482   25.3534  -80.1252 C.3       6 UNK        -0.1791 
     42 N         -75.3949   27.1117  -78.9847 N.am      6 UNK        -0.4762 
     43 C         -75.4619   28.4476  -78.9890 C.2       6 UNK         0.5007 
     44 O         -75.5441   29.1315  -80.0117 O.2       6 UNK        -0.5032 
     45 CA        -75.4678   29.1108  -77.5944 C.3       5 UNK         0.0783 
     46 C46       -75.6010   30.6565  -77.6514 C.3       11 UNK        -0.0857 
     47 S47       -75.3788   31.4214  -76.0094 S.3       11 UNK        -0.2512 
     48 C48       -77.0620   31.9947  -75.5966 C.3       11 UNK         0.0225 
     49 N         -76.4486   28.4638  -76.7110 N.am      5 UNK        -0.4615 
     50 C         -77.7747   28.4070  -76.8878 C.2       4 UNK         0.5053 
     51 O         -78.3626   28.9578  -77.8198 O.2       4 UNK        -0.5105 
     52 CA        -78.5828   27.5947  -75.8565 C.3       4 UNK         0.0263 
     53 CB        -80.0054   27.2650  -76.3437 C.3       4 UNK        -0.1981 
     54 N         -77.9255   26.3548  -75.4404 N.am      4 UNK        -0.4224 
     55 C         -76.9795   26.2551  -74.4990 C.2       3 UNK         0.4895 
     56 O         -76.4753   27.2277  -73.9355 O.2       3 UNK        -0.5091 
     57 CA        -76.5510   24.8266  -74.1203 C.3       3 UNK         0.0250 
     58 CB        -75.4644   24.7999  -73.0322 C.3       3 UNK        -0.1996 
     59 N         -77.7003   24.0585  -73.6417 N.am      3 UNK        -0.4254 
     60 C         -78.5796   23.4077  -74.4141 C.2       2 UNK         0.5004 
     61 O         -78.5096   23.3642  -75.6428 O.2       2 UNK        -0.5226 
     62 CA        -79.7532   22.7369  -73.6864 C.3       2 UNK         0.0269 
     63 CB        -79.3065   21.4309  -73.0086 C.3       2 UNK        -0.1926 
     64 N         -80.3392   23.6356  -72.6880 N.am      2 UNK        -0.4687 
     65 C         -81.2097   24.6158  -72.9727 C.2       1 UNK         0.5165 
     66 O         -81.6642   24.7978  -74.1029 O.2       1 UNK        -0.5079 
     67 H67       -81.1297   24.3442  -67.5288 H         1 UNK         0.0900 
     68 H68       -80.0443   23.2095  -68.3361 H         1 UNK         0.0900 
     69 H69       -79.6967   24.9396  -68.3690 H         1 UNK         0.0900 
     70 H70       -80.2059   25.8852  -70.3408 H         1 UNK         0.2959 
     71 H71       -82.7242   25.3120  -71.6829 H         1 UNK         0.1079 
     72 H72       -82.1357   27.6238  -71.4494 H         1 UNK         0.0837 
     73 H73       -82.1078   27.2335  -73.1412 H         1 UNK         0.0837 
     74 H74       -80.9277   29.5549  -73.4848 H         1 UNK         0.0685 
     75 H75       -80.8734   29.8618  -71.7647 H         1 UNK         0.0685 
     76 H76       -79.2376   30.4907  -74.9110 H         1 UNK         0.1434 
     77 H77       -75.8614   32.5043  -73.2002 H         1 UNK         0.1329 
     78 H78       -78.5740   30.3402  -70.6795 H         1 UNK         0.1335 
     79 H79       -76.8344   31.6473  -69.6690 H         1 UNK         0.0680 
     80 H80       -76.1411   32.9429  -70.6124 H         1 UNK         0.0680 
     81 H81       -75.2480   29.2421  -69.0910 H         1 UNK         0.1032 
     82 H82       -76.1520   29.0944  -70.5769 H         1 UNK         0.1032 
     83 H83       -73.1595   28.5987  -70.3340 H         1 UNK         0.0461 
     84 H84       -73.5530   24.9911  -70.0473 H         1 UNK         0.3453 
     85 H85       -72.6563   26.1601  -71.0030 H         1 UNK         0.3453 
     86 H86       -74.9121   28.5757  -72.6657 H         1 UNK         0.2984 
     87 H87       -74.2001   28.0852  -74.7081 H         1 UNK         0.0554 
     88 H88       -72.8551   30.1609  -74.5602 H         1 UNK         0.0847 
     89 H89       -72.4377   29.3134  -76.0413 H         1 UNK         0.0847 
     90 H90       -71.3559   29.2474  -74.6549 H         1 UNK         0.0847 
     91 H91       -71.6852   26.5173  -74.5770 H         1 UNK         0.3141 
     92 H92       -71.3063   24.9431  -76.3262 H         1 UNK         0.0743 
     93 H93       -73.6084   23.3772  -74.9971 H         1 UNK         0.0784 
     94 H94       -72.0027   22.7385  -75.3373 H         1 UNK         0.0784 
     95 H95       -72.2048   24.0175  -74.1513 H         1 UNK         0.0784 
     96 H96       -73.8320   24.4696  -77.6745 H         1 UNK         0.3213 
     97 H97       -72.2271   23.5017  -80.5829 H         1 UNK         0.0855 
     98 H98       -74.0622   21.5692  -79.0575 H         1 UNK         0.0814 
     99 H99       -72.4925   21.1668  -79.7379 H         1 UNK         0.0814 
    100 H100      -73.8172   21.5980  -80.8052 H         1 UNK         0.0814 
    101 H101      -75.0080   23.7156  -79.8593 H         1 UNK         0.3105 
    102 H102      -75.4212   26.8389  -81.0796 H         1 UNK         0.0547 
    103 H103      -77.5527   25.9603  -80.1732 H         1 UNK         0.0837 
    104 H104      -76.7084   24.7573  -79.2137 H         1 UNK         0.0837 
    105 H105      -76.6785   24.6749  -80.9789 H         1 UNK         0.0837 
    106 H106      -75.2362   26.6593  -78.0881 H         1 UNK         0.3020 
    107 H107      -74.4886   28.8866  -77.1711 H         1 UNK         0.1245 
    108 H108      -76.5526   30.9544  -78.0931 H         1 UNK         0.0781 
    109 H109      -74.8302   31.0749  -78.3012 H         1 UNK         0.0781 
    110 H110      -77.7756   31.6509  -76.3462 H         1 UNK         0.0836 
    111 H111      -77.0830   33.0845  -75.6337 H         1 UNK         0.0836 
    112 H112      -76.0677   27.9834  -75.9041 H         1 UNK         0.3022 
    113 H113      -78.6815   28.2244  -74.9744 H         1 UNK         0.0747 
    114 H114      -80.5752   26.7486  -75.5719 H         1 UNK         0.0793 
    115 H115      -80.5581   28.1720  -76.5920 H         1 UNK         0.0793 
    116 H116      -79.9908   26.6335  -77.2327 H         1 UNK         0.0793 
    117 H117      -78.2676   25.4947  -75.8535 H         1 UNK         0.3047 
    118 H118      -76.1416   24.3581  -75.0181 H         1 UNK         0.0822 
    119 H119      -75.1396   23.7818  -72.8179 H         1 UNK         0.0807 
    120 H120      -75.8234   25.2403  -72.1020 H         1 UNK         0.0807 
    121 H121      -74.5835   25.3611  -73.3403 H         1 UNK         0.0807 
    122 H122      -77.8690   24.0844  -72.6473 H         1 UNK         0.2946 
    123 H123      -80.5107   22.4891  -74.4343 H         1 UNK         0.1144 
    124 H124      -80.1497   20.9191  -72.5443 H         1 UNK         0.0793 
    125 H125      -78.5552   21.6051  -72.2374 H         1 UNK         0.0793 
    126 H126      -78.8732   20.7436  -73.7366 H         1 UNK         0.0793 
    127 H127      -80.0408   23.5308  -71.7296 H         1 UNK         0.2896 
@<TRIPOS>BOND
     1    1    2 1    
     2    1   67 1    
     3    1   68 1    
     4    1   69 1    
     5    2    3 2    
     6    2    4 am   BACKBONE|DICT|INTERRES
     7    4    5 1    
     8    4   70 1    
     9    5    6 1    
    10    5   65 1    
    11    5   71 1    
    12    6    7 1    
    13    6   72 1    
    14    6   73 1    
    15    7    8 1    
    16    8    9 1    
    17    8   74 1    
    18    8   75 1    
    19    9   10 ar   
    20    9   14 ar   
    21   10   11 ar   
    22   10   76 1    
    23   11   12 ar   
    24   11   48 1    
    25   12   13 ar   
    26   12   77 1    
    27   13   14 ar   
    28   13   15 1    
    29   14   78 1    
    30   15   16 1    
    31   15   79 1    
    32   15   80 1    
    33   16   17 1    
    34   17   18 1    
    35   17   81 1    
    36   17   82 1    
    37   18   19 1    
    38   18   22 1    
    39   18   83 1    
    40   19   20 am   BACKBONE|DICT|INTERRES
    41   19   21 2    
    42   20   84 1    
    43   20   85 1    
    44   22   23 am   BACKBONE|DICT|INTERRES
    45   22   86 1    
    46   23   24 2    
    47   23   25 1    
    48   25   26 1    
    49   25   27 1    
    50   25   87 1    
    51   26   88 1    
    52   26   89 1    
    53   26   90 1    
    54   27   28 am   BACKBONE|DICT|INTERRES
    55   27   91 1    
    56   28   29 2    
    57   28   30 1    
    58   30   31 1    
    59   30   32 1    
    60   30   92 1    
    61   31   93 1    
    62   31   94 1    
    63   31   95 1    
    64   32   33 am   BACKBONE|DICT|INTERRES
    65   32   96 1    
    66   33   34 2    
    67   33   35 1    
    68   35   36 1    
    69   35   37 1    
    70   35   97 1    
    71   36   98 1    
    72   36   99 1    
    73   36  100 1    
    74   37   38 am   BACKBONE|DICT|INTERRES
    75   37  101 1    
    76   38   39 2    
    77   38   40 1    
    78   40   41 1    
    79   40   42 1    
    80   40  102 1    
    81   41  103 1    
    82   41  104 1    
    83   41  105 1    
    84   42   43 am   BACKBONE|DICT|INTERRES
    85   42  106 1    
    86   43   44 2    
    87   43   45 1    
    88   45   46 1    
    89   45   49 1    
    90   45  107 1    
    91   46   47 1    
    92   46  108 1    
    93   46  109 1    
    94   47   48 1    
    95   48  110 1    
    96   48  111 1    
    97   49   50 am   BACKBONE|DICT|INTERRES
    98   49  112 1    
    99   50   51 2    
   100   50   52 1    
   101   52   53 1    
   102   52   54 1    
   103   52  113 1    
   104   53  114 1    
   105   53  115 1    
   106   53  116 1    
   107   54   55 am   BACKBONE|DICT|INTERRES
   108   54  117 1    
   109   55   56 2    
   110   55   57 1    
   111   57   58 1    
   112   57   59 1    
   113   57  118 1    
   114   58  119 1    
   115   58  120 1    
   116   58  121 1    
   117   59   60 am   BACKBONE|DICT|INTERRES
   118   59  122 1    
   119   60   61 2    
   120   60   62 1    
   121   62   63 1    
   122   62   64 1    
   123   62  123 1    
   124   63  124 1    
   125   63  125 1    
   126   63  126 1    
   127   64   65 am   BACKBONE|DICT|INTERRES
   128   64  127 1    
   129   65   66 2    
@<TRIPOS>SUBSTRUCTURE
     1 UNK         1 GROUP             0       ****    0 ROOT    
