@<TRIPOS>MOLECULE
3R135
127   129    1
SMALL
USER_CHARGES


@<TRIPOS>ATOM
      1 CA        -79.3703   30.9804  -75.4813 C.3       0 UNK        -0.1998 
      2 C         -79.4469   29.6805  -74.6954 C.2       0 UNK         0.4909 
      3 O         -78.5103   28.8858  -74.7433 O.2       0 UNK        -0.5240 
      4 N         -80.5525   29.4639  -73.9706 N.am      1 UNK        -0.4739 
      5 CA        -80.7963   28.2624  -73.1651 C.3       1 UNK         0.0864 
      6 C6        -81.9585   28.4485  -72.1532 C.3       11 UNK        -0.0881 
      7 S7        -81.8343   29.9484  -71.1206 S.3       11 UNK        -0.2682 
      8 C8        -80.8664   29.3574  -69.6949 C.3       11 UNK         0.0289 
      9 C9        -79.3870   29.2384  -70.0302 C.ar      11 UNK        -0.0687 
     10 C10       -78.7528   27.9921  -70.0342 C.ar      11 UNK        -0.0823 
     11 C11       -77.3965   27.8884  -70.3620 C.ar      11 UNK        -0.0830 
     12 C12       -76.6710   29.0456  -70.6649 C.ar      11 UNK        -0.1021 
     13 C13       -77.2924   30.2964  -70.6548 C.ar      11 UNK        -0.0753 
     14 C14       -78.6493   30.3859  -70.3354 C.ar      11 UNK        -0.0933 
     15 C15       -76.5028   31.5549  -70.9771 C.3       11 UNK         0.0166 
     16 S16       -76.3875   31.8299  -72.7747 S.3       11 UNK        -0.2615 
     17 C17       -74.6540   31.3855  -73.1515 C.3       11 UNK        -0.0865 
     18 CA        -74.4974   30.1219  -74.0445 C.3       10 UNK         0.0862 
     19 C         -74.7300   30.4004  -75.5630 C.2       10 UNK         0.5551 
     20 N         -73.9052   29.8843  -76.4688 N.am      10 UNK        -0.7319 
     21 O         -75.6654   31.1012  -75.9384 O.2       10 UNK        -0.5018 
     22 N         -73.1961   29.4851  -73.7991 N.am      10 UNK        -0.4509 
     23 C         -72.9568   28.4382  -73.0070 C.2       10 UNK         0.4899 
     24 O         -73.8046   27.8790  -72.3111 O.2       10 UNK        -0.4839 
     25 CA        -71.5083   27.9180  -73.0179 C.3       9 UNK         0.0222 
     26 CB        -71.1075   27.3111  -71.6609 C.3       9 UNK        -0.1966 
     27 N         -71.3063   26.9167  -74.0664 N.am      9 UNK        -0.4218 
     28 C         -71.3177   27.1428  -75.3880 C.2       9 UNK         0.5020 
     29 O         -71.4643   28.2593  -75.8915 O.2       9 UNK        -0.5274 
     30 CA        -71.1225   25.9300  -76.3105 C.3       8 UNK         0.0270 
     31 CB        -70.7833   24.6114  -75.5789 C.3       8 UNK        -0.1976 
     32 N         -72.3199   25.7447  -77.1292 N.am      8 UNK        -0.4313 
     33 C         -72.3213   25.2347  -78.3683 C.2       8 UNK         0.5041 
     34 O         -71.2892   24.9369  -78.9734 O.2       8 UNK        -0.5577 
     35 CA        -73.6729   24.9655  -79.0618 C.3       7 UNK         0.0284 
     36 CB        -73.8974   23.4513  -79.2144 C.3       7 UNK        -0.1958 
     37 N         -74.8308   25.5416  -78.3774 N.am      7 UNK        -0.4454 
     38 C         -75.1771   26.8347  -78.4112 C.2       7 UNK         0.5089 
     39 O         -74.5856   27.6851  -79.0770 O.2       7 UNK        -0.5125 
     40 CA        -76.3707   27.2556  -77.5330 C.3       6 UNK         0.0408 
     41 CB        -77.6865   27.1393  -78.3164 C.3       6 UNK        -0.1791 
     42 N         -76.4918   26.5057  -76.2785 N.am      6 UNK        -0.4762 
     43 C         -75.5452   26.4043  -75.3342 C.2       6 UNK         0.5007 
     44 O         -74.4145   26.8645  -75.4543 O.2       6 UNK        -0.5032 
     45 CA        -75.8991   25.5894  -74.0812 C.3       5 UNK         0.0783 
     46 C46       -76.9202   26.3508  -73.2029 C.3       11 UNK        -0.0857 
     47 S47       -77.3873   25.4450  -71.6912 S.3       11 UNK        -0.2512 
     48 C48       -76.7133   26.5269  -70.3890 C.3       11 UNK         0.0225 
     49 N         -76.3636   24.2639  -74.4920 N.am      5 UNK        -0.4615 
     50 C         -75.5590   23.2758  -74.9055 C.2       4 UNK         0.5053 
     51 O         -74.3304   23.3414  -74.8840 O.2       4 UNK        -0.5105 
     52 CA        -76.2299   21.9990  -75.4453 C.3       4 UNK         0.0263 
     53 CB        -76.3620   20.9517  -74.3280 C.3       4 UNK        -0.1981 
     54 N         -77.5476   22.2384  -76.0398 N.am      4 UNK        -0.4224 
     55 C         -77.7633   22.9301  -77.1685 C.2       3 UNK         0.4895 
     56 O         -76.8669   23.4036  -77.8657 O.2       3 UNK        -0.5091 
     57 CA        -79.2348   23.1896  -77.5448 C.3       3 UNK         0.0250 
     58 CB        -79.8095   22.0032  -78.3348 C.3       3 UNK        -0.1996 
     59 N         -80.0934   23.4776  -76.3864 N.am      3 UNK        -0.4254 
     60 C         -79.8843   24.4870  -75.5293 C.2       2 UNK         0.5004 
     61 O         -78.9471   25.2774  -75.6405 O.2       2 UNK        -0.5226 
     62 CA        -80.8250   24.5809  -74.3154 C.3       2 UNK         0.0269 
     63 CB        -80.5422   23.4338  -73.3291 C.3       2 UNK        -0.1926 
     64 N         -80.6731   25.8518  -73.5995 N.am      2 UNK        -0.4687 
     65 C         -81.0849   27.0400  -74.0612 C.2       1 UNK         0.5165 
     66 O         -81.7238   27.1819  -75.1082 O.2       1 UNK        -0.5079 
     67 H67       -80.2443   31.6103  -75.3173 H         1 UNK         0.0900 
     68 H68       -79.2949   30.7688  -76.5474 H         1 UNK         0.0900 
     69 H69       -78.4848   31.5423  -75.1841 H         1 UNK         0.0900 
     70 H70       -81.2971   30.1455  -73.9709 H         1 UNK         0.2959 
     71 H71       -79.8791   28.0599  -72.6085 H         1 UNK         0.1079 
     72 H72       -82.0382   27.5776  -71.4998 H         1 UNK         0.0837 
     73 H73       -82.9118   28.5089  -72.6827 H         1 UNK         0.0837 
     74 H74       -80.9845   30.0666  -68.8745 H         1 UNK         0.0685 
     75 H75       -81.2718   28.4089  -69.3394 H         1 UNK         0.0685 
     76 H76       -79.3144   27.0986  -69.7981 H         1 UNK         0.1434 
     77 H77       -75.6223   28.9770  -70.9168 H         1 UNK         0.1329 
     78 H78       -79.1388   31.3504  -70.3330 H         1 UNK         0.1335 
     79 H79       -76.9915   32.4224  -70.5309 H         1 UNK         0.0680 
     80 H80       -75.5163   31.5055  -70.5156 H         1 UNK         0.0680 
     81 H81       -74.1683   32.2452  -73.6167 H         1 UNK         0.1032 
     82 H82       -74.1222   31.2382  -72.2112 H         1 UNK         0.1032 
     83 H83       -75.2768   29.4086  -73.7690 H         1 UNK         0.0461 
     84 H84       -73.1633   29.2460  -76.2008 H         1 UNK         0.3453 
     85 H85       -74.0747   30.0647  -77.4448 H         1 UNK         0.3453 
     86 H86       -72.4421   29.8121  -74.3887 H         1 UNK         0.2984 
     87 H87       -70.8412   28.7600  -73.2146 H         1 UNK         0.0554 
     88 H88       -70.0563   27.0228  -71.6490 H         1 UNK         0.0847 
     89 H89       -71.7007   26.4283  -71.4184 H         1 UNK         0.0847 
     90 H90       -71.2539   28.0314  -70.8549 H         1 UNK         0.0847 
     91 H91       -71.2148   25.9603  -73.7575 H         1 UNK         0.3141 
     92 H92       -70.2805   26.1855  -76.9572 H         1 UNK         0.0743 
     93 H93       -71.6063   24.2715  -74.9482 H         1 UNK         0.0784 
     94 H94       -70.5720   23.8143  -76.2920 H         1 UNK         0.0784 
     95 H95       -69.8948   24.7167  -74.9548 H         1 UNK         0.0784 
     96 H96       -73.1928   26.0480  -76.7007 H         1 UNK         0.3213 
     97 H97       -73.6126   25.4017  -80.0612 H         1 UNK         0.0855 
     98 H98       -73.9827   22.9590  -78.2446 H         1 UNK         0.0814 
     99 H99       -73.0707   22.9812  -79.7488 H         1 UNK         0.0814 
    100 H100      -74.8064   23.2399  -79.7780 H         1 UNK         0.0814 
    101 H101      -75.4233   24.8988  -77.8613 H         1 UNK         0.3105 
    102 H102      -76.2294   28.3037  -77.2646 H         1 UNK         0.0547 
    103 H103      -77.6500   27.7299  -79.2326 H         1 UNK         0.0837 
    104 H104      -77.8945   26.1070  -78.5987 H         1 UNK         0.0837 
    105 H105      -78.5297   27.5023  -77.7276 H         1 UNK         0.0837 
    106 H106      -77.4013   26.0846  -76.0883 H         1 UNK         0.3020 
    107 H107      -74.9820   25.4731  -73.4979 H         1 UNK         0.1245 
    108 H108      -77.8360   26.5565  -73.7546 H         1 UNK         0.0781 
    109 H109      -76.5176   27.3290  -72.9362 H         1 UNK         0.0781 
    110 H110      -75.6368   26.6316  -70.5358 H         1 UNK         0.0836 
    111 H111      -76.8453   26.0415  -69.4213 H         1 UNK         0.0836 
    112 H112      -77.3631   24.1661  -74.6016 H         1 UNK         0.3022 
    113 H113      -75.5798   21.5920  -76.2230 H         1 UNK         0.0747 
    114 H114      -76.7621   20.0119  -74.7090 H         1 UNK         0.0793 
    115 H115      -75.3901   20.7315  -73.8840 H         1 UNK         0.0793 
    116 H116      -77.0157   21.2966  -73.5256 H         1 UNK         0.0793 
    117 H117      -78.3471   21.8855  -75.5350 H         1 UNK         0.3047 
    118 H118      -79.2539   24.0691  -78.1914 H         1 UNK         0.0822 
    119 H119      -80.8161   22.2164  -78.6950 H         1 UNK         0.0807 
    120 H120      -79.8531   21.0958  -77.7312 H         1 UNK         0.0807 
    121 H121      -79.1951   21.7837  -79.2093 H         1 UNK         0.0807 
    122 H122      -80.8779   22.8590  -76.2366 H         1 UNK         0.2946 
    123 H123      -81.8541   24.5037  -74.6736 H         1 UNK         0.1144 
    124 H124      -81.2007   23.4864  -72.4618 H         1 UNK         0.0793 
    125 H125      -79.5130   23.4553  -72.9678 H         1 UNK         0.0793 
    126 H126      -80.7050   22.4600  -73.7925 H         1 UNK         0.0793 
    127 H127      -80.1345   25.8189  -72.7461 H         1 UNK         0.2896 
@<TRIPOS>BOND
     1    1    2 1    
     2    1   67 1    
     3    1   68 1    
     4    1   69 1    
     5    2    3 2    
     6    2    4 am   BACKBONE|DICT|INTERRES
     7    4    5 1    
     8    4   70 1    
     9    5    6 1    
    10    5   65 1    
    11    5   71 1    
    12    6    7 1    
    13    6   72 1    
    14    6   73 1    
    15    7    8 1    
    16    8    9 1    
    17    8   74 1    
    18    8   75 1    
    19    9   10 ar   
    20    9   14 ar   
    21   10   11 ar   
    22   10   76 1    
    23   11   12 ar   
    24   11   48 1    
    25   12   13 ar   
    26   12   77 1    
    27   13   14 ar   
    28   13   15 1    
    29   14   78 1    
    30   15   16 1    
    31   15   79 1    
    32   15   80 1    
    33   16   17 1    
    34   17   18 1    
    35   17   81 1    
    36   17   82 1    
    37   18   19 1    
    38   18   22 1    
    39   18   83 1    
    40   19   20 am   BACKBONE|DICT|INTERRES
    41   19   21 2    
    42   20   84 1    
    43   20   85 1    
    44   22   23 am   BACKBONE|DICT|INTERRES
    45   22   86 1    
    46   23   24 2    
    47   23   25 1    
    48   25   26 1    
    49   25   27 1    
    50   25   87 1    
    51   26   88 1    
    52   26   89 1    
    53   26   90 1    
    54   27   28 am   BACKBONE|DICT|INTERRES
    55   27   91 1    
    56   28   29 2    
    57   28   30 1    
    58   30   31 1    
    59   30   32 1    
    60   30   92 1    
    61   31   93 1    
    62   31   94 1    
    63   31   95 1    
    64   32   33 am   BACKBONE|DICT|INTERRES
    65   32   96 1    
    66   33   34 2    
    67   33   35 1    
    68   35   36 1    
    69   35   37 1    
    70   35   97 1    
    71   36   98 1    
    72   36   99 1    
    73   36  100 1    
    74   37   38 am   BACKBONE|DICT|INTERRES
    75   37  101 1    
    76   38   39 2    
    77   38   40 1    
    78   40   41 1    
    79   40   42 1    
    80   40  102 1    
    81   41  103 1    
    82   41  104 1    
    83   41  105 1    
    84   42   43 am   BACKBONE|DICT|INTERRES
    85   42  106 1    
    86   43   44 2    
    87   43   45 1    
    88   45   46 1    
    89   45   49 1    
    90   45  107 1    
    91   46   47 1    
    92   46  108 1    
    93   46  109 1    
    94   47   48 1    
    95   48  110 1    
    96   48  111 1    
    97   49   50 am   BACKBONE|DICT|INTERRES
    98   49  112 1    
    99   50   51 2    
   100   50   52 1    
   101   52   53 1    
   102   52   54 1    
   103   52  113 1    
   104   53  114 1    
   105   53  115 1    
   106   53  116 1    
   107   54   55 am   BACKBONE|DICT|INTERRES
   108   54  117 1    
   109   55   56 2    
   110   55   57 1    
   111   57   58 1    
   112   57   59 1    
   113   57  118 1    
   114   58  119 1    
   115   58  120 1    
   116   58  121 1    
   117   59   60 am   BACKBONE|DICT|INTERRES
   118   59  122 1    
   119   60   61 2    
   120   60   62 1    
   121   62   63 1    
   122   62   64 1    
   123   62  123 1    
   124   63  124 1    
   125   63  125 1    
   126   63  126 1    
   127   64   65 am   BACKBONE|DICT|INTERRES
   128   64  127 1    
   129   65   66 2    
@<TRIPOS>SUBSTRUCTURE
     1 UNK         1 GROUP             0       ****    0 ROOT    
