@<TRIPOS>MOLECULE
3R135
127   129    1
SMALL
USER_CHARGES


@<TRIPOS>ATOM
      1 CA        -85.7578   25.8710  -70.9394 C.3       0 UNK        -0.1998 
      2 C         -85.1029   26.4704  -72.1749 C.2       0 UNK         0.4909 
      3 O         -85.5736   26.2388  -73.2888 O.2       0 UNK        -0.5240 
      4 N         -84.0252   27.2437  -71.9841 N.am      1 UNK        -0.4739 
      5 CA        -83.2376   27.8733  -73.0516 C.3       1 UNK         0.0864 
      6 C6        -82.2925   28.9524  -72.4664 C.3       11 UNK        -0.0881 
      7 S7        -81.6440   30.1340  -73.6977 S.3       11 UNK        -0.2682 
      8 C8        -80.0382   29.4047  -74.1587 C.3       11 UNK         0.0289 
      9 C9        -79.0239   29.4245  -73.0232 C.ar      11 UNK        -0.0687 
     10 C10       -78.8805   28.3102  -72.1926 C.ar      11 UNK        -0.0823 
     11 C11       -77.8861   28.2773  -71.2121 C.ar      11 UNK        -0.0830 
     12 C12       -77.0574   29.3891  -71.0355 C.ar      11 UNK        -0.1021 
     13 C13       -77.1776   30.5072  -71.8691 C.ar      11 UNK        -0.0753 
     14 C14       -78.1731   30.5213  -72.8528 C.ar      11 UNK        -0.0933 
     15 C15       -76.2325   31.6993  -71.7310 C.3       11 UNK         0.0166 
     16 S16       -74.4802   31.2402  -71.4829 S.3       11 UNK        -0.2615 
     17 C17       -74.0990   30.3105  -73.0088 C.3       11 UNK        -0.0865 
     18 CA        -72.6056   29.8937  -73.0971 C.3       10 UNK         0.0862 
     19 C         -72.2353   28.7891  -72.0733 C.2       10 UNK         0.5551 
     20 N         -71.3923   29.0997  -71.0980 N.am      10 UNK        -0.7319 
     21 O         -72.7233   27.6634  -72.1405 O.2       10 UNK        -0.5018 
     22 N         -72.2826   29.4240  -74.4478 N.am      10 UNK        -0.4509 
     23 C         -71.2666   29.8548  -75.2041 C.2       10 UNK         0.4899 
     24 O         -70.4879   30.7467  -74.8619 O.2       10 UNK        -0.4839 
     25 CA        -71.1124   29.1888  -76.5871 C.3       9 UNK         0.0222 
     26 CB        -69.8070   29.5809  -77.3124 C.3       9 UNK        -0.1966 
     27 N         -71.2793   27.7314  -76.5490 N.am      9 UNK        -0.4218 
     28 C         -70.5164   26.8308  -75.9088 C.2       9 UNK         0.5020 
     29 O         -69.4990   27.1231  -75.2784 O.2       9 UNK        -0.5274 
     30 CA        -70.9484   25.3488  -75.9631 C.3       8 UNK         0.0270 
     31 CB        -71.2436   24.8195  -74.5488 C.3       8 UNK        -0.1976 
     32 N         -72.1153   25.0985  -76.8159 N.am      8 UNK        -0.4313 
     33 C         -72.0900   25.0075  -78.1528 C.2       8 UNK         0.5041 
     34 O         -71.0571   25.0533  -78.8214 O.2       8 UNK        -0.5577 
     35 CA        -73.4491   24.8873  -78.8698 C.3       7 UNK         0.0284 
     36 CB        -73.8850   23.4169  -78.9702 C.3       7 UNK        -0.1958 
     37 N         -74.5102   25.6695  -78.2272 N.am      7 UNK        -0.4454 
     38 C         -74.5081   27.0047  -78.1018 C.2       7 UNK         0.5089 
     39 O         -73.6412   27.7371  -78.5772 O.2       7 UNK        -0.5125 
     40 CA        -75.6097   27.6188  -77.2219 C.3       6 UNK         0.0408 
     41 CB        -76.9185   27.8011  -78.0058 C.3       6 UNK        -0.1791 
     42 N         -75.8483   26.8301  -76.0098 N.am      6 UNK        -0.4762 
     43 C         -74.9413   26.6555  -75.0355 C.2       6 UNK         0.5007 
     44 O         -73.8287   27.1738  -75.0522 O.2       6 UNK        -0.5032 
     45 CA        -75.3404   25.7448  -73.8594 C.3       5 UNK         0.0783 
     46 C46       -76.1409   26.5815  -72.8453 C.3       11 UNK        -0.0857 
     47 S47       -76.9071   25.6579  -71.4671 S.3       11 UNK        -0.2512 
     48 C48       -77.6255   26.9935  -70.4320 C.3       11 UNK         0.0225 
     49 N         -76.0749   24.5725  -74.3352 N.am      5 UNK        -0.4615 
     50 C         -75.5220   23.5804  -75.0450 C.2       4 UNK         0.5053 
     51 O         -74.3254   23.5282  -75.3280 O.2       4 UNK        -0.5105 
     52 CA        -76.4750   22.4943  -75.5729 C.3       4 UNK         0.0263 
     53 CB        -76.6898   21.4031  -74.5124 C.3       4 UNK        -0.1981 
     54 N         -77.7724   23.0334  -75.9926 N.am      4 UNK        -0.4224 
     55 C         -77.9413   23.9363  -76.9700 C.2       3 UNK         0.4895 
     56 O         -77.0209   24.3559  -77.6714 O.2       3 UNK        -0.5091 
     57 CA        -79.3594   24.4920  -77.1899 C.3       3 UNK         0.0250 
     58 CB        -80.0124   23.8216  -78.4088 C.3       3 UNK        -0.1996 
     59 N         -80.2442   24.3540  -76.0277 N.am      3 UNK        -0.4254 
     60 C         -80.1093   25.0250  -74.8747 C.2       2 UNK         0.5004 
     61 O         -79.1914   25.8143  -74.6416 O.2       2 UNK        -0.5226 
     62 CA        -81.1435   24.7044  -73.7791 C.3       2 UNK         0.0269 
     63 CB        -80.4777   23.9124  -72.6415 C.3       2 UNK        -0.1926 
     64 N         -81.8095   25.8818  -73.2114 N.am      2 UNK        -0.4687 
     65 C         -82.4923   26.8140  -73.8960 C.2       1 UNK         0.5165 
     66 O         -82.5985   26.8287  -75.1232 O.2       1 UNK        -0.5079 
     67 H67       -86.7954   26.1964  -70.8696 H         1 UNK         0.0900 
     68 H68       -85.2478   26.1662  -70.0226 H         1 UNK         0.0900 
     69 H69       -85.7450   24.7830  -70.9990 H         1 UNK         0.0900 
     70 H70       -83.6980   27.4028  -71.0415 H         1 UNK         0.2959 
     71 H71       -83.9451   28.3731  -73.7177 H         1 UNK         0.1079 
     72 H72       -82.8493   29.5581  -71.7494 H         1 UNK         0.0837 
     73 H73       -81.4895   28.5048  -71.8848 H         1 UNK         0.0837 
     74 H74       -79.6401   29.9607  -75.0089 H         1 UNK         0.0685 
     75 H75       -80.1816   28.3860  -74.5187 H         1 UNK         0.0685 
     76 H76       -79.4883   27.4317  -72.3606 H         1 UNK         0.1434 
     77 H77       -76.2784   29.3613  -70.2860 H         1 UNK         0.1329 
     78 H78       -78.2724   31.3772  -73.5064 H         1 UNK         0.1335 
     79 H79       -76.2967   32.3441  -72.6090 H         1 UNK         0.0680 
     80 H80       -76.5578   32.3016  -70.8820 H         1 UNK         0.0680 
     81 H81       -74.3519   30.9505  -73.8555 H         1 UNK         0.1032 
     82 H82       -74.7538   29.4419  -73.0852 H         1 UNK         0.1032 
     83 H83       -72.0092   30.7813  -72.8762 H         1 UNK         0.0461 
     84 H84       -71.1497   28.3963  -70.4184 H         1 UNK         0.3453 
     85 H85       -70.9983   30.0248  -71.0268 H         1 UNK         0.3453 
     86 H86       -72.8197   28.6147  -74.7595 H         1 UNK         0.2984 
     87 H87       -71.9406   29.5639  -77.1898 H         1 UNK         0.0554 
     88 H88       -69.7538   30.6597  -77.4640 H         1 UNK         0.0847 
     89 H89       -69.7438   29.1137  -78.2951 H         1 UNK         0.0847 
     90 H90       -68.9226   29.2903  -76.7447 H         1 UNK         0.0847 
     91 H91       -72.1062   27.3874  -77.0218 H         1 UNK         0.3141 
     92 H92       -70.1038   24.7840  -76.3630 H         1 UNK         0.0743 
     93 H93       -70.3632   24.8981  -73.9097 H         1 UNK         0.0784 
     94 H94       -72.0428   25.3827  -74.0665 H         1 UNK         0.0784 
     95 H95       -71.5364   23.7695  -74.5684 H         1 UNK         0.0784 
     96 H96       -73.0051   24.9928  -76.3421 H         1 UNK         0.3213 
     97 H97       -73.3219   25.2755  -79.8826 H         1 UNK         0.0855 
     98 H98       -74.0376   22.9720  -77.9866 H         1 UNK         0.0814 
     99 H99       -73.1301   22.8208  -79.4846 H         1 UNK         0.0814 
    100 H100      -74.8154   23.3163  -79.5295 H         1 UNK         0.0814 
    101 H101      -75.3044   25.1539  -77.8535 H         1 UNK         0.3105 
    102 H102      -75.2696   28.6077  -76.9068 H         1 UNK         0.0547 
    103 H103      -76.7675   28.4653  -78.8577 H         1 UNK         0.0837 
    104 H104      -77.2973   26.8579  -78.3981 H         1 UNK         0.0837 
    105 H105      -77.6967   28.2444  -77.3842 H         1 UNK         0.0837 
    106 H106      -76.7406   26.3623  -75.9304 H         1 UNK         0.3020 
    107 H107      -74.4242   25.4017  -73.3733 H         1 UNK         0.1245 
    108 H108      -76.9383   27.0971  -73.3801 H         1 UNK         0.0781 
    109 H109      -75.4980   27.3504  -72.4149 H         1 UNK         0.0781 
    110 H110      -78.5573   26.6389  -69.9896 H         1 UNK         0.0836 
    111 H111      -76.9485   27.1874  -69.5986 H         1 UNK         0.0836 
    112 H112      -77.0690   24.5649  -74.1527 H         1 UNK         0.3022 
    113 H113      -76.0048   22.0386  -76.4468 H         1 UNK         0.0747 
    114 H114      -75.7374   20.9739  -74.1978 H         1 UNK         0.0793 
    115 H115      -77.2984   20.5861  -74.9006 H         1 UNK         0.0793 
    116 H116      -77.1808   21.7951  -73.6205 H         1 UNK         0.0793 
    117 H117      -78.5846   22.7293  -75.4771 H         1 UNK         0.3047 
    118 H118      -79.2566   25.5583  -77.4023 H         1 UNK         0.0822 
    119 H119      -80.9807   24.2680  -78.6365 H         1 UNK         0.0807 
    120 H120      -80.1620   22.7527  -78.2517 H         1 UNK         0.0807 
    121 H121      -79.3893   23.9360  -79.2973 H         1 UNK         0.0807 
    122 H122      -81.0238   23.7203  -76.1342 H         1 UNK         0.2946 
    123 H123      -81.9272   24.0802  -74.2139 H         1 UNK         0.1144 
    124 H124      -79.9855   23.0157  -73.0204 H         1 UNK         0.0793 
    125 H125      -81.2084   23.5884  -71.9001 H         1 UNK         0.0793 
    126 H126      -79.7201   24.5066  -72.1288 H         1 UNK         0.0793 
    127 H127      -81.8019   25.9517  -72.2049 H         1 UNK         0.2896 
@<TRIPOS>BOND
     1    1    2 1    
     2    1   67 1    
     3    1   68 1    
     4    1   69 1    
     5    2    3 2    
     6    2    4 am   BACKBONE|DICT|INTERRES
     7    4    5 1    
     8    4   70 1    
     9    5    6 1    
    10    5   65 1    
    11    5   71 1    
    12    6    7 1    
    13    6   72 1    
    14    6   73 1    
    15    7    8 1    
    16    8    9 1    
    17    8   74 1    
    18    8   75 1    
    19    9   10 ar   
    20    9   14 ar   
    21   10   11 ar   
    22   10   76 1    
    23   11   12 ar   
    24   11   48 1    
    25   12   13 ar   
    26   12   77 1    
    27   13   14 ar   
    28   13   15 1    
    29   14   78 1    
    30   15   16 1    
    31   15   79 1    
    32   15   80 1    
    33   16   17 1    
    34   17   18 1    
    35   17   81 1    
    36   17   82 1    
    37   18   19 1    
    38   18   22 1    
    39   18   83 1    
    40   19   20 am   BACKBONE|DICT|INTERRES
    41   19   21 2    
    42   20   84 1    
    43   20   85 1    
    44   22   23 am   BACKBONE|DICT|INTERRES
    45   22   86 1    
    46   23   24 2    
    47   23   25 1    
    48   25   26 1    
    49   25   27 1    
    50   25   87 1    
    51   26   88 1    
    52   26   89 1    
    53   26   90 1    
    54   27   28 am   BACKBONE|DICT|INTERRES
    55   27   91 1    
    56   28   29 2    
    57   28   30 1    
    58   30   31 1    
    59   30   32 1    
    60   30   92 1    
    61   31   93 1    
    62   31   94 1    
    63   31   95 1    
    64   32   33 am   BACKBONE|DICT|INTERRES
    65   32   96 1    
    66   33   34 2    
    67   33   35 1    
    68   35   36 1    
    69   35   37 1    
    70   35   97 1    
    71   36   98 1    
    72   36   99 1    
    73   36  100 1    
    74   37   38 am   BACKBONE|DICT|INTERRES
    75   37  101 1    
    76   38   39 2    
    77   38   40 1    
    78   40   41 1    
    79   40   42 1    
    80   40  102 1    
    81   41  103 1    
    82   41  104 1    
    83   41  105 1    
    84   42   43 am   BACKBONE|DICT|INTERRES
    85   42  106 1    
    86   43   44 2    
    87   43   45 1    
    88   45   46 1    
    89   45   49 1    
    90   45  107 1    
    91   46   47 1    
    92   46  108 1    
    93   46  109 1    
    94   47   48 1    
    95   48  110 1    
    96   48  111 1    
    97   49   50 am   BACKBONE|DICT|INTERRES
    98   49  112 1    
    99   50   51 2    
   100   50   52 1    
   101   52   53 1    
   102   52   54 1    
   103   52  113 1    
   104   53  114 1    
   105   53  115 1    
   106   53  116 1    
   107   54   55 am   BACKBONE|DICT|INTERRES
   108   54  117 1    
   109   55   56 2    
   110   55   57 1    
   111   57   58 1    
   112   57   59 1    
   113   57  118 1    
   114   58  119 1    
   115   58  120 1    
   116   58  121 1    
   117   59   60 am   BACKBONE|DICT|INTERRES
   118   59  122 1    
   119   60   61 2    
   120   60   62 1    
   121   62   63 1    
   122   62   64 1    
   123   62  123 1    
   124   63  124 1    
   125   63  125 1    
   126   63  126 1    
   127   64   65 am   BACKBONE|DICT|INTERRES
   128   64  127 1    
   129   65   66 2    
@<TRIPOS>SUBSTRUCTURE
     1 UNK         1 GROUP             0       ****    0 ROOT    
