@<TRIPOS>MOLECULE
3R135
127   129    1
SMALL
USER_CHARGES


@<TRIPOS>ATOM
      1 CA        -85.2884   26.0377  -70.2819 C.3       0 UNK        -0.1998 
      2 C         -84.8388   26.4922  -71.6623 C.2       0 UNK         0.4909 
      3 O         -85.4731   26.1417  -72.6577 O.2       0 UNK        -0.5240 
      4 N         -83.7526   27.2745  -71.7275 N.am      1 UNK        -0.4739 
      5 CA        -83.1497   27.7776  -72.9687 C.3       1 UNK         0.0864 
      6 C6        -82.1424   28.9145  -72.6641 C.3       11 UNK        -0.0881 
      7 S7        -81.7337   29.9657  -74.1009 S.3       11 UNK        -0.2682 
      8 C8        -80.2046   29.2096  -74.7456 C.3       11 UNK         0.0289 
      9 C9        -79.0220   29.3565  -73.7973 C.ar      11 UNK        -0.0687 
     10 C10       -78.7234   28.3412  -72.8871 C.ar      11 UNK        -0.0823 
     11 C11       -77.6523   28.4652  -72.0011 C.ar      11 UNK        -0.0830 
     12 C12       -76.8590   29.6143  -72.0433 C.ar      11 UNK        -0.1021 
     13 C13       -77.1185   30.6281  -72.9773 C.ar      11 UNK        -0.0753 
     14 C14       -78.2104   30.4929  -73.8425 C.ar      11 UNK        -0.0933 
     15 C15       -76.2620   31.8923  -73.0694 C.3       11 UNK         0.0166 
     16 S16       -74.5241   31.7027  -72.5404 S.3       11 UNK        -0.2615 
     17 C17       -73.9454   30.3892  -73.6681 C.3       11 UNK        -0.0865 
     18 CA        -72.5306   29.8578  -73.3118 C.3       10 UNK         0.0862 
     19 C         -72.5255   28.8352  -72.1320 C.2       10 UNK         0.5551 
     20 N         -71.8358   27.7035  -72.2275 N.am      10 UNK        -0.7319 
     21 O         -73.1359   29.0753  -71.0938 O.2       10 UNK        -0.5018 
     22 N         -71.8692   29.3441  -74.5199 N.am      10 UNK        -0.4509 
     23 C         -70.6389   29.6735  -74.9283 C.2       10 UNK         0.4899 
     24 O         -69.9357   30.5102  -74.3586 O.2       10 UNK        -0.4839 
     25 CA        -70.0985   28.9711  -76.1934 C.3       9 UNK         0.0222 
     26 CB        -68.5560   28.9154  -76.2120 C.3       9 UNK        -0.1966 
     27 N         -70.6440   27.6332  -76.4613 N.am      9 UNK        -0.4218 
     28 C         -70.6446   26.5634  -75.6545 C.2       9 UNK         0.5020 
     29 O         -70.2940   26.6001  -74.4731 O.2       9 UNK        -0.5274 
     30 CA        -71.0928   25.2265  -76.2839 C.3       8 UNK         0.0270 
     31 CB        -71.1789   24.0881  -75.2505 C.3       8 UNK        -0.1976 
     32 N         -72.3623   25.3121  -77.0168 N.am      8 UNK        -0.4313 
     33 C         -72.5241   25.8557  -78.2316 C.2       8 UNK         0.5041 
     34 O         -71.6130   26.4021  -78.8557 O.2       8 UNK        -0.5577 
     35 CA        -73.9328   25.8097  -78.8436 C.3       7 UNK         0.0284 
     36 CB        -74.2677   24.3958  -79.3455 C.3       7 UNK        -0.1958 
     37 N         -74.9577   26.2575  -77.9021 N.am      7 UNK        -0.4454 
     38 C         -75.1194   27.5265  -77.4993 C.2       7 UNK         0.5089 
     39 O         -74.4750   28.4780  -77.9418 O.2       7 UNK        -0.5125 
     40 CA        -76.1572   27.7682  -76.3868 C.3       6 UNK         0.0408 
     41 CB        -77.5761   27.7850  -76.9729 C.3       6 UNK        -0.1791 
     42 N         -76.0704   26.7749  -75.3106 N.am      6 UNK        -0.4762 
     43 C         -74.9720   26.5743  -74.5649 C.2       6 UNK         0.5007 
     44 O         -73.9439   27.2400  -74.6809 O.2       6 UNK        -0.5032 
     45 CA        -74.9746   25.3886  -73.5834 C.3       5 UNK         0.0783 
     46 C46       -75.3356   25.7957  -72.1306 C.3       11 UNK        -0.0857 
     47 S47       -77.1166   25.7455  -71.7342 S.3       11 UNK        -0.2512 
     48 C48       -77.3921   27.3761  -70.9707 C.3       11 UNK         0.0225 
     49 N         -75.7518   24.2508  -74.0859 N.am      5 UNK        -0.4615 
     50 C         -75.3817   23.4913  -75.1241 C.2       4 UNK         0.5053 
     51 O         -74.3374   23.6567  -75.7536 O.2       4 UNK        -0.5105 
     52 CA        -76.3602   22.3899  -75.5579 C.3       4 UNK         0.0263 
     53 CB        -76.4799   21.2964  -74.4830 C.3       4 UNK        -0.1981 
     54 N         -77.6902   22.9058  -75.8916 N.am      4 UNK        -0.4224 
     55 C         -77.9496   23.7995  -76.8578 C.2       3 UNK         0.4895 
     56 O         -77.0843   24.3166  -77.5632 O.2       3 UNK        -0.5091 
     57 CA        -79.4215   24.1825  -77.0907 C.3       3 UNK         0.0250 
     58 CB        -80.0091   23.3591  -78.2480 C.3       3 UNK        -0.1996 
     59 N         -80.2767   24.0362  -75.9093 N.am      3 UNK        -0.4254 
     60 C         -80.1835   24.7969  -74.8107 C.2       2 UNK         0.5004 
     61 O         -79.3166   25.6561  -74.6470 O.2       2 UNK        -0.5226 
     62 CA        -81.2064   24.5137  -73.6958 C.3       2 UNK         0.0269 
     63 CB        -80.5535   23.6964  -72.5694 C.3       2 UNK        -0.1926 
     64 N         -81.8004   25.7267  -73.1240 N.am      2 UNK        -0.4687 
     65 C         -82.5262   26.6322  -73.7997 C.2       1 UNK         0.5165 
     66 O         -82.7577   26.5612  -75.0078 O.2       1 UNK        -0.5079 
     67 H67       -85.2752   24.9497  -70.2228 H         1 UNK         0.0900 
     68 H68       -86.3055   26.3773  -70.0880 H         1 UNK         0.0900 
     69 H69       -84.6450   26.4277  -69.4934 H         1 UNK         0.0900 
     70 H70       -83.2842   27.5356  -70.8713 H         1 UNK         0.2959 
     71 H71       -83.9604   28.2001  -73.5673 H         1 UNK         0.1079 
     72 H72       -82.5834   29.5900  -71.9291 H         1 UNK         0.0837 
     73 H73       -81.2456   28.5310  -72.1827 H         1 UNK         0.0837 
     74 H74       -79.9647   29.6803  -75.7001 H         1 UNK         0.0685 
     75 H75       -80.3827   28.1581  -74.9698 H         1 UNK         0.0685 
     76 H76       -79.3331   27.4495  -72.8576 H         1 UNK         0.1434 
     77 H77       -76.0352   29.7133  -71.3499 H         1 UNK         0.1329 
     78 H78       -78.4328   31.2759  -74.5546 H         1 UNK         0.1335 
     79 H79       -76.2612   32.2651  -74.0950 H         1 UNK         0.0680 
     80 H80       -76.7258   32.6679  -72.4589 H         1 UNK         0.0680 
     81 H81       -74.6644   29.5707  -73.7001 H         1 UNK         0.1032 
     82 H82       -73.9451   30.8172  -74.6720 H         1 UNK         0.1032 
     83 H83       -71.9548   30.7076  -72.9422 H         1 UNK         0.0461 
     84 H84       -71.8276   27.0677  -71.4475 H         1 UNK         0.3453 
     85 H85       -71.3203   27.4719  -73.0715 H         1 UNK         0.3453 
     86 H86       -72.3684   28.5959  -74.9893 H         1 UNK         0.2984 
     87 H87       -70.4146   29.5920  -77.0327 H         1 UNK         0.0554 
     88 H88       -68.1855   28.4536  -77.1272 H         1 UNK         0.0847 
     89 H89       -68.1655   28.3464  -75.3673 H         1 UNK         0.0847 
     90 H90       -68.1221   29.9148  -76.1607 H         1 UNK         0.0847 
     91 H91       -70.9753   27.4701  -77.4103 H         1 UNK         0.3141 
     92 H92       -70.3147   24.9500  -76.9985 H         1 UNK         0.0743 
     93 H93       -70.2169   23.9282  -74.7619 H         1 UNK         0.0784 
     94 H94       -71.9072   24.3078  -74.4706 H         1 UNK         0.0784 
     95 H95       -71.4634   23.1457  -75.7189 H         1 UNK         0.0784 
     96 H96       -73.1645   24.8681  -76.5731 H         1 UNK         0.3213 
     97 H97       -73.9446   26.4838  -79.7028 H         1 UNK         0.0855 
     98 H98       -74.3103   23.6738  -78.5290 H         1 UNK         0.0814 
     99 H99       -73.5176   24.0446  -80.0553 H         1 UNK         0.0814 
    100 H100      -75.2314   24.3762  -79.8548 H         1 UNK         0.0814 
    101 H101      -75.5795   25.5440  -77.5295 H         1 UNK         0.3105 
    102 H102      -75.9615   28.7449  -75.9391 H         1 UNK         0.0547 
    103 H103      -78.3292   27.7988  -76.1887 H         1 UNK         0.0837 
    104 H104      -77.7278   28.6691  -77.5927 H         1 UNK         0.0837 
    105 H105      -77.7688   26.9151  -77.5995 H         1 UNK         0.0837 
    106 H106      -76.8855   26.1986  -75.1443 H         1 UNK         0.3020 
    107 H107      -73.9335   25.0609  -73.5482 H         1 UNK         0.1245 
    108 H108      -74.9233   26.7773  -71.8877 H         1 UNK         0.0781 
    109 H109      -74.8473   25.1049  -71.4417 H         1 UNK         0.0781 
    110 H110      -76.5485   27.6296  -70.3267 H         1 UNK         0.0836 
    111 H111      -78.2622   27.3076  -70.3165 H         1 UNK         0.0836 
    112 H112      -76.6396   24.0863  -73.6331 H         1 UNK         0.3022 
    113 H113      -75.9522   21.9312  -76.4612 H         1 UNK         0.0747 
    114 H114      -77.0738   20.4548  -74.8398 H         1 UNK         0.0793 
    115 H115      -75.4975   20.9050  -74.2144 H         1 UNK         0.0793 
    116 H116      -76.9436   21.6692  -73.5689 H         1 UNK         0.0793 
    117 H117      -78.4688   22.5378  -75.3659 H         1 UNK         0.3047 
    118 H118      -79.4409   25.2343  -77.3820 H         1 UNK         0.0822 
    119 H119      -79.4078   23.4724  -79.1515 H         1 UNK         0.0807 
    120 H120      -81.0207   23.6832  -78.4931 H         1 UNK         0.0807 
    121 H121      -80.0435   22.2948  -78.0115 H         1 UNK         0.0807 
    122 H122      -81.0091   23.3428  -75.9664 H         1 UNK         0.2946 
    123 H123      -82.0248   23.9257  -74.1170 H         1 UNK         0.1144 
    124 H124      -80.1149   22.7749  -72.9546 H         1 UNK         0.0793 
    125 H125      -81.2819   23.4129  -71.8095 H         1 UNK         0.0793 
    126 H126      -79.7564   24.2555  -72.0782 H         1 UNK         0.0793 
    127 H127      -81.6722   25.8642  -72.1327 H         1 UNK         0.2896 
@<TRIPOS>BOND
     1    1    2 1    
     2    1   67 1    
     3    1   68 1    
     4    1   69 1    
     5    2    3 2    
     6    2    4 am   BACKBONE|DICT|INTERRES
     7    4    5 1    
     8    4   70 1    
     9    5    6 1    
    10    5   65 1    
    11    5   71 1    
    12    6    7 1    
    13    6   72 1    
    14    6   73 1    
    15    7    8 1    
    16    8    9 1    
    17    8   74 1    
    18    8   75 1    
    19    9   10 ar   
    20    9   14 ar   
    21   10   11 ar   
    22   10   76 1    
    23   11   12 ar   
    24   11   48 1    
    25   12   13 ar   
    26   12   77 1    
    27   13   14 ar   
    28   13   15 1    
    29   14   78 1    
    30   15   16 1    
    31   15   79 1    
    32   15   80 1    
    33   16   17 1    
    34   17   18 1    
    35   17   81 1    
    36   17   82 1    
    37   18   19 1    
    38   18   22 1    
    39   18   83 1    
    40   19   20 am   BACKBONE|DICT|INTERRES
    41   19   21 2    
    42   20   84 1    
    43   20   85 1    
    44   22   23 am   BACKBONE|DICT|INTERRES
    45   22   86 1    
    46   23   24 2    
    47   23   25 1    
    48   25   26 1    
    49   25   27 1    
    50   25   87 1    
    51   26   88 1    
    52   26   89 1    
    53   26   90 1    
    54   27   28 am   BACKBONE|DICT|INTERRES
    55   27   91 1    
    56   28   29 2    
    57   28   30 1    
    58   30   31 1    
    59   30   32 1    
    60   30   92 1    
    61   31   93 1    
    62   31   94 1    
    63   31   95 1    
    64   32   33 am   BACKBONE|DICT|INTERRES
    65   32   96 1    
    66   33   34 2    
    67   33   35 1    
    68   35   36 1    
    69   35   37 1    
    70   35   97 1    
    71   36   98 1    
    72   36   99 1    
    73   36  100 1    
    74   37   38 am   BACKBONE|DICT|INTERRES
    75   37  101 1    
    76   38   39 2    
    77   38   40 1    
    78   40   41 1    
    79   40   42 1    
    80   40  102 1    
    81   41  103 1    
    82   41  104 1    
    83   41  105 1    
    84   42   43 am   BACKBONE|DICT|INTERRES
    85   42  106 1    
    86   43   44 2    
    87   43   45 1    
    88   45   46 1    
    89   45   49 1    
    90   45  107 1    
    91   46   47 1    
    92   46  108 1    
    93   46  109 1    
    94   47   48 1    
    95   48  110 1    
    96   48  111 1    
    97   49   50 am   BACKBONE|DICT|INTERRES
    98   49  112 1    
    99   50   51 2    
   100   50   52 1    
   101   52   53 1    
   102   52   54 1    
   103   52  113 1    
   104   53  114 1    
   105   53  115 1    
   106   53  116 1    
   107   54   55 am   BACKBONE|DICT|INTERRES
   108   54  117 1    
   109   55   56 2    
   110   55   57 1    
   111   57   58 1    
   112   57   59 1    
   113   57  118 1    
   114   58  119 1    
   115   58  120 1    
   116   58  121 1    
   117   59   60 am   BACKBONE|DICT|INTERRES
   118   59  122 1    
   119   60   61 2    
   120   60   62 1    
   121   62   63 1    
   122   62   64 1    
   123   62  123 1    
   124   63  124 1    
   125   63  125 1    
   126   63  126 1    
   127   64   65 am   BACKBONE|DICT|INTERRES
   128   64  127 1    
   129   65   66 2    
@<TRIPOS>SUBSTRUCTURE
     1 UNK         1 GROUP             0       ****    0 ROOT    
