@<TRIPOS>MOLECULE
3R135
127   129    1
SMALL
USER_CHARGES


@<TRIPOS>ATOM
      1 CA        -80.0643   21.1953  -72.3204 C.3       0 UNK        -0.1998 
      2 C         -80.9616   22.4009  -72.5519 C.2       0 UNK         0.4909 
      3 O         -81.7850   22.3857  -73.4677 O.2       0 UNK        -0.5240 
      4 N         -80.8001   23.4526  -71.7387 N.am      1 UNK        -0.4739 
      5 CA        -81.5062   24.7353  -71.8399 C.3       1 UNK         0.0864 
      6 C6        -81.1776   25.6874  -70.6574 C.3       11 UNK        -0.0881 
      7 S7        -79.4104   25.7478  -70.1813 S.3       11 UNK        -0.2682 
      8 C8        -79.2175   27.4736  -69.6417 C.3       11 UNK         0.0289 
      9 C9        -78.5679   28.3376  -70.7126 C.ar      11 UNK        -0.0687 
     10 C10       -79.3493   29.0367  -71.6377 C.ar      11 UNK        -0.0823 
     11 C11       -78.7483   29.8815  -72.5776 C.ar      11 UNK        -0.0830 
     12 C12       -77.3591   30.0395  -72.5686 C.ar      11 UNK        -0.1021 
     13 C13       -76.5624   29.2966  -71.6931 C.ar      11 UNK        -0.0753 
     14 C14       -77.1753   28.4556  -70.7597 C.ar      11 UNK        -0.0933 
     15 C15       -75.0434   29.3897  -71.7570 C.3       11 UNK         0.0166 
     16 S16       -74.4115   29.0636  -73.4378 S.3       11 UNK        -0.2615 
     17 C17       -73.8499   30.7260  -73.9579 C.3       11 UNK        -0.0865 
     18 CA        -72.3045   30.8726  -73.9821 C.3       10 UNK         0.0862 
     19 C         -71.7002   30.9715  -72.5513 C.2       10 UNK         0.5551 
     20 N         -71.8250   32.1271  -71.9124 N.am      10 UNK        -0.7319 
     21 O         -71.1542   30.0159  -72.0037 O.2       10 UNK        -0.5018 
     22 N         -71.6970   29.8315  -74.8209 N.am      10 UNK        -0.4509 
     23 C         -70.4267   29.7939  -75.2388 C.2       10 UNK         0.4899 
     24 O         -69.6052   30.6840  -75.0131 O.2       10 UNK        -0.4839 
     25 CA        -70.0237   28.5806  -76.1001 C.3       9 UNK         0.0222 
     26 CB        -68.5227   28.2336  -75.9940 C.3       9 UNK        -0.1966 
     27 N         -70.8787   27.4016  -75.8939 N.am      9 UNK        -0.4218 
     28 C         -70.9337   26.5956  -74.8198 C.2       9 UNK         0.5020 
     29 O         -70.2115   26.7323  -73.8319 O.2       9 UNK        -0.5274 
     30 CA        -71.9640   25.4424  -74.8278 C.3       8 UNK         0.0270 
     31 CB        -72.7519   25.3815  -73.5063 C.3       8 UNK        -0.1976 
     32 N         -72.9183   25.5015  -75.9390 N.am      8 UNK        -0.4313 
     33 C         -72.6712   25.1130  -77.1970 C.2       8 UNK         0.5041 
     34 O         -71.6135   24.5965  -77.5578 O.2       8 UNK        -0.5577 
     35 CA        -73.7641   25.4043  -78.2411 C.3       7 UNK         0.0284 
     36 CB        -74.7810   24.2540  -78.2949 C.3       7 UNK        -0.1958 
     37 N         -74.4700   26.6698  -78.0112 N.am      7 UNK        -0.4454 
     38 C         -73.9113   27.8870  -77.9818 C.2       7 UNK         0.5089 
     39 O         -72.7097   28.0830  -78.1613 O.2       7 UNK        -0.5125 
     40 CA        -74.8168   29.0903  -77.6547 C.3       6 UNK         0.0408 
     41 CB        -75.4313   29.6918  -78.9327 C.3       6 UNK        -0.1791 
     42 N         -75.8343   28.8230  -76.6269 N.am      6 UNK        -0.4762 
     43 C         -76.9136   28.0309  -76.6990 C.2       6 UNK         0.5007 
     44 O         -77.2510   27.4147  -77.7122 O.2       6 UNK        -0.5032 
     45 CA        -77.7083   27.8421  -75.3910 C.3       5 UNK         0.0783 
     46 C46       -79.1072   28.5067  -75.4596 C.3       11 UNK        -0.0857 
     47 S47       -79.0280   30.3255  -75.3242 S.3       11 UNK        -0.2512 
     48 C48       -79.5976   30.6123  -73.6113 C.3       11 UNK         0.0225 
     49 N         -77.8104   26.4312  -75.0166 N.am      5 UNK        -0.4615 
     50 C         -76.8031   25.5528  -74.9084 C.2       4 UNK         0.5053 
     51 O         -75.6186   25.8314  -75.0959 O.2       4 UNK        -0.5105 
     52 CA        -77.1810   24.1109  -74.5374 C.3       4 UNK         0.0263 
     53 CB        -77.1719   23.9296  -73.0115 C.3       4 UNK        -0.1981 
     54 N         -78.4977   23.7476  -75.0683 N.am      4 UNK        -0.4224 
     55 C         -78.7058   23.2268  -76.2869 C.2       3 UNK         0.4895 
     56 O         -77.7992   22.9112  -77.0573 O.2       3 UNK        -0.5091 
     57 CA        -80.1635   23.0075  -76.7330 C.3       3 UNK         0.0250 
     58 CB        -80.5684   21.5355  -76.5514 C.3       3 UNK        -0.1996 
     59 N         -81.1141   23.8698  -76.0251 N.am      3 UNK        -0.4254 
     60 C         -81.3337   25.1564  -76.3401 C.2       2 UNK         0.5004 
     61 O         -80.8203   25.7175  -77.3073 O.2       2 UNK        -0.5226 
     62 CA        -82.2614   25.9726  -75.4171 C.3       2 UNK         0.0269 
     63 CB        -83.6850   26.0204  -75.9945 C.3       2 UNK        -0.1926 
     64 N         -82.3186   25.4878  -74.0333 N.am      2 UNK        -0.4687 
     65 C         -81.2636   25.3924  -73.2127 C.2       1 UNK         0.5165 
     66 O         -80.1255   25.7295  -73.5370 O.2       1 UNK        -0.5079 
     67 H67       -79.4430   21.3152  -71.4330 H         1 UNK         0.0900 
     68 H68       -80.6682   20.2974  -72.1927 H         1 UNK         0.0900 
     69 H69       -79.4077   21.0468  -73.1771 H         1 UNK         0.0900 
     70 H70       -80.0857   23.4265  -71.0243 H         1 UNK         0.2959 
     71 H71       -82.5721   24.5060  -71.7742 H         1 UNK         0.1079 
     72 H72       -81.7292   25.3581  -69.7754 H         1 UNK         0.0837 
     73 H73       -81.5433   26.6948  -70.8648 H         1 UNK         0.0837 
     74 H74       -80.1799   27.8917  -69.3429 H         1 UNK         0.0685 
     75 H75       -78.5999   27.4843  -68.7424 H         1 UNK         0.0685 
     76 H76       -80.4244   28.9238  -71.6214 H         1 UNK         0.1434 
     77 H77       -76.8926   30.6998  -73.2865 H         1 UNK         0.1329 
     78 H78       -76.5696   27.8927  -70.0627 H         1 UNK         0.1335 
     79 H79       -74.5891   28.6593  -71.0858 H         1 UNK         0.0680 
     80 H80       -74.7231   30.3680  -71.3976 H         1 UNK         0.0680 
     81 H81       -74.3066   31.4986  -73.3370 H         1 UNK         0.1032 
     82 H82       -74.2391   30.9111  -74.9594 H         1 UNK         0.1032 
     83 H83       -72.0799   31.8211  -74.4744 H         1 UNK         0.0461 
     84 H84       -71.4515   32.2122  -70.9799 H         1 UNK         0.3453 
     85 H85       -72.2692   32.9212  -72.3464 H         1 UNK         0.3453 
     86 H86       -72.2813   29.0310  -75.0066 H         1 UNK         0.2984 
     87 H87       -70.2048   28.8866  -77.1313 H         1 UNK         0.0554 
     88 H88       -67.9056   29.0651  -76.3364 H         1 UNK         0.0847 
     89 H89       -68.2693   27.3700  -76.6088 H         1 UNK         0.0847 
     90 H90       -68.2261   28.0161  -74.9678 H         1 UNK         0.0847 
     91 H91       -71.5228   27.2178  -76.6558 H         1 UNK         0.3141 
     92 H92       -71.3931   24.5158  -74.9158 H         1 UNK         0.0743 
     93 H93       -73.3322   26.2895  -73.3423 H         1 UNK         0.0784 
     94 H94       -73.4441   24.5393  -73.4961 H         1 UNK         0.0784 
     95 H95       -72.0855   25.2607  -72.6514 H         1 UNK         0.0784 
     96 H96       -73.8520   25.8452  -75.7154 H         1 UNK         0.3213 
     97 H97       -73.2759   25.4764  -79.2152 H         1 UNK         0.0855 
     98 H98       -75.3134   24.1420  -77.3500 H         1 UNK         0.0814 
     99 H99       -74.2865   23.3044  -78.5039 H         1 UNK         0.0814 
    100 H100      -75.5224   24.4123  -79.0781 H         1 UNK         0.0814 
    101 H101      -75.4730   26.6215  -77.8575 H         1 UNK         0.3105 
    102 H102      -74.1664   29.8524  -77.2231 H         1 UNK         0.0547 
    103 H103      -76.0326   30.5724  -78.7074 H         1 UNK         0.0837 
    104 H104      -76.0646   28.9785  -79.4605 H         1 UNK         0.0837 
    105 H105      -74.6499   30.0018  -79.6278 H         1 UNK         0.0837 
    106 H106      -75.6239   29.2210  -75.7214 H         1 UNK         0.3020 
    107 H107      -77.1450   28.3013  -74.5796 H         1 UNK         0.1245 
    108 H108      -79.7386   28.1371  -74.6508 H         1 UNK         0.0781 
    109 H109      -79.6254   28.2378  -76.3824 H         1 UNK         0.0781 
    110 H110      -80.6445   30.3140  -73.5363 H         1 UNK         0.0836 
    111 H111      -79.5663   31.6824  -73.4024 H         1 UNK         0.0836 
    112 H112      -78.7343   26.1203  -74.7338 H         1 UNK         0.3022 
    113 H113      -76.4215   23.4487  -74.9588 H         1 UNK         0.0747 
    114 H114      -77.3949   22.9003  -72.7317 H         1 UNK         0.0793 
    115 H115      -76.1928   24.1745  -72.5976 H         1 UNK         0.0793 
    116 H116      -77.9003   24.5772  -72.5231 H         1 UNK         0.0793 
    117 H117      -79.2966   24.0413  -74.5206 H         1 UNK         0.3047 
    118 H118      -80.2139   23.2359  -77.8001 H         1 UNK         0.0822 
    119 H119      -81.5896   21.3596  -76.8897 H         1 UNK         0.0807 
    120 H120      -80.5004   21.2193  -75.5108 H         1 UNK         0.0807 
    121 H121      -79.9178   20.8797  -77.1316 H         1 UNK         0.0807 
    122 H122      -81.5690   23.4742  -75.2075 H         1 UNK         0.2946 
    123 H123      -81.8692   26.9915  -75.3920 H         1 UNK         0.1144 
    124 H124      -84.1436   25.0310  -76.0201 H         1 UNK         0.0793 
    125 H125      -83.6794   26.4034  -77.0161 H         1 UNK         0.0793 
    126 H126      -84.3300   26.6762  -75.4093 H         1 UNK         0.0793 
    127 H127      -83.2156   25.1495  -73.7145 H         1 UNK         0.2896 
@<TRIPOS>BOND
     1    1    2 1    
     2    1   67 1    
     3    1   68 1    
     4    1   69 1    
     5    2    3 2    
     6    2    4 am   BACKBONE|DICT|INTERRES
     7    4    5 1    
     8    4   70 1    
     9    5    6 1    
    10    5   65 1    
    11    5   71 1    
    12    6    7 1    
    13    6   72 1    
    14    6   73 1    
    15    7    8 1    
    16    8    9 1    
    17    8   74 1    
    18    8   75 1    
    19    9   10 ar   
    20    9   14 ar   
    21   10   11 ar   
    22   10   76 1    
    23   11   12 ar   
    24   11   48 1    
    25   12   13 ar   
    26   12   77 1    
    27   13   14 ar   
    28   13   15 1    
    29   14   78 1    
    30   15   16 1    
    31   15   79 1    
    32   15   80 1    
    33   16   17 1    
    34   17   18 1    
    35   17   81 1    
    36   17   82 1    
    37   18   19 1    
    38   18   22 1    
    39   18   83 1    
    40   19   20 am   BACKBONE|DICT|INTERRES
    41   19   21 2    
    42   20   84 1    
    43   20   85 1    
    44   22   23 am   BACKBONE|DICT|INTERRES
    45   22   86 1    
    46   23   24 2    
    47   23   25 1    
    48   25   26 1    
    49   25   27 1    
    50   25   87 1    
    51   26   88 1    
    52   26   89 1    
    53   26   90 1    
    54   27   28 am   BACKBONE|DICT|INTERRES
    55   27   91 1    
    56   28   29 2    
    57   28   30 1    
    58   30   31 1    
    59   30   32 1    
    60   30   92 1    
    61   31   93 1    
    62   31   94 1    
    63   31   95 1    
    64   32   33 am   BACKBONE|DICT|INTERRES
    65   32   96 1    
    66   33   34 2    
    67   33   35 1    
    68   35   36 1    
    69   35   37 1    
    70   35   97 1    
    71   36   98 1    
    72   36   99 1    
    73   36  100 1    
    74   37   38 am   BACKBONE|DICT|INTERRES
    75   37  101 1    
    76   38   39 2    
    77   38   40 1    
    78   40   41 1    
    79   40   42 1    
    80   40  102 1    
    81   41  103 1    
    82   41  104 1    
    83   41  105 1    
    84   42   43 am   BACKBONE|DICT|INTERRES
    85   42  106 1    
    86   43   44 2    
    87   43   45 1    
    88   45   46 1    
    89   45   49 1    
    90   45  107 1    
    91   46   47 1    
    92   46  108 1    
    93   46  109 1    
    94   47   48 1    
    95   48  110 1    
    96   48  111 1    
    97   49   50 am   BACKBONE|DICT|INTERRES
    98   49  112 1    
    99   50   51 2    
   100   50   52 1    
   101   52   53 1    
   102   52   54 1    
   103   52  113 1    
   104   53  114 1    
   105   53  115 1    
   106   53  116 1    
   107   54   55 am   BACKBONE|DICT|INTERRES
   108   54  117 1    
   109   55   56 2    
   110   55   57 1    
   111   57   58 1    
   112   57   59 1    
   113   57  118 1    
   114   58  119 1    
   115   58  120 1    
   116   58  121 1    
   117   59   60 am   BACKBONE|DICT|INTERRES
   118   59  122 1    
   119   60   61 2    
   120   60   62 1    
   121   62   63 1    
   122   62   64 1    
   123   62  123 1    
   124   63  124 1    
   125   63  125 1    
   126   63  126 1    
   127   64   65 am   BACKBONE|DICT|INTERRES
   128   64  127 1    
   129   65   66 2    
@<TRIPOS>SUBSTRUCTURE
     1 UNK         1 GROUP             0       ****    0 ROOT    
