@<TRIPOS>MOLECULE
3R135
127   129    1
SMALL
USER_CHARGES


@<TRIPOS>ATOM
      1 CA        -83.9625   27.6495  -76.5709 C.3       0 UNK        -0.1998 
      2 C         -82.7963   28.5738  -76.2554 C.2       0 UNK         0.4909 
      3 O         -82.6561   29.6209  -76.8878 O.2       0 UNK        -0.5240 
      4 N         -81.9579   28.1943  -75.2820 N.am      1 UNK        -0.4739 
      5 CA        -80.7830   28.9597  -74.8419 C.3       1 UNK         0.0864 
      6 C6        -80.2499   28.4549  -73.4800 C.3       11 UNK        -0.0881 
      7 S7        -81.4397   28.6299  -72.1101 S.3       11 UNK        -0.2682 
      8 C8        -80.4017   29.3881  -70.8125 C.3       11 UNK         0.0289 
      9 C9        -79.1582   28.5641  -70.4896 C.ar      11 UNK        -0.0687 
     10 C10       -79.2784   27.2627  -69.9931 C.ar      11 UNK        -0.0823 
     11 C11       -78.1410   26.5019  -69.7040 C.ar      11 UNK        -0.0830 
     12 C12       -76.8729   27.0500  -69.9202 C.ar      11 UNK        -0.1021 
     13 C13       -76.7362   28.3545  -70.4078 C.ar      11 UNK        -0.0753 
     14 C14       -77.8836   29.1078  -70.6809 C.ar      11 UNK        -0.0933 
     15 C15       -75.3501   28.9535  -70.6170 C.3       11 UNK         0.0166 
     16 S16       -75.0993   29.5259  -72.3267 S.3       11 UNK        -0.2615 
     17 C17       -73.3114   29.8886  -72.3120 C.3       11 UNK        -0.0865 
     18 CA        -72.8565   30.7261  -73.5379 C.3       10 UNK         0.0862 
     19 C         -71.3412   31.0789  -73.4398 C.2       10 UNK         0.5551 
     20 N         -70.4924   30.6831  -74.3824 N.am      10 UNK        -0.7319 
     21 O         -70.9282   31.7313  -72.4843 O.2       10 UNK        -0.5018 
     22 N         -73.2541   30.0894  -74.8025 N.am      10 UNK        -0.4509 
     23 C         -73.3369   30.6999  -75.9905 C.2       10 UNK         0.4899 
     24 O         -73.1593   31.9077  -76.1566 O.2       10 UNK        -0.4839 
     25 CA        -73.6583   29.7883  -77.1913 C.3       9 UNK         0.0222 
     26 CB        -73.3014   30.4286  -78.5495 C.3       9 UNK        -0.1966 
     27 N         -73.0592   28.4515  -77.0636 N.am      9 UNK        -0.4218 
     28 C         -71.7524   28.1483  -76.9724 C.2       9 UNK         0.5020 
     29 O         -70.8597   28.9970  -77.0035 O.2       9 UNK        -0.5274 
     30 CA        -71.3557   26.6710  -76.7540 C.3       8 UNK         0.0270 
     31 CB        -70.4586   26.5277  -75.5109 C.3       8 UNK        -0.1976 
     32 N         -72.4992   25.7677  -76.6047 N.am      8 UNK        -0.4313 
     33 C         -73.2540   25.2883  -77.6023 C.2       8 UNK         0.5041 
     34 O         -73.0056   25.4686  -78.7943 O.2       8 UNK        -0.5577 
     35 CA        -74.5267   24.5149  -77.2005 C.3       7 UNK         0.0284 
     36 CB        -74.2934   23.0013  -77.3220 C.3       7 UNK        -0.1958 
     37 N         -75.0299   24.8354  -75.8537 N.am      7 UNK        -0.4454 
     38 C         -75.4406   26.0566  -75.4719 C.2       7 UNK         0.5089 
     39 O         -75.4267   27.0277  -76.2279 O.2       7 UNK        -0.5125 
     40 CA        -75.9197   26.2554  -74.0252 C.3       6 UNK         0.0408 
     41 CB        -77.1872   27.1147  -73.9823 C.3       6 UNK        -0.1791 
     42 N         -76.1984   24.9927  -73.3488 N.am      6 UNK        -0.4762 
     43 C         -75.4610   24.4590  -72.3662 C.2       6 UNK         0.5007 
     44 O         -74.4420   24.9830  -71.9145 O.2       6 UNK        -0.5032 
     45 CA        -75.9114   23.0921  -71.8039 C.3       5 UNK         0.0783 
     46 C46       -76.5594   23.2332  -70.4022 C.3       11 UNK        -0.0857 
     47 S47       -78.2914   23.8271  -70.4304 S.3       11 UNK        -0.2512 
     48 C48       -78.2921   25.1009  -69.1299 C.3       11 UNK         0.0225 
     49 N         -76.7648   22.3255  -72.7197 N.am      5 UNK        -0.4615 
     50 C         -76.4154   21.8885  -73.9347 C.2       4 UNK         0.5053 
     51 O         -75.2914   22.0418  -74.4127 O.2       4 UNK        -0.5105 
     52 CA        -77.5101   21.2221  -74.7897 C.3       4 UNK         0.0263 
     53 CB        -78.7922   20.8572  -74.0052 C.3       4 UNK        -0.1981 
     54 N         -77.8429   22.0394  -75.9639 N.am      4 UNK        -0.4224 
     55 C         -78.2683   23.3117  -75.9651 C.2       3 UNK         0.4895 
     56 O         -78.4549   23.9850  -74.9471 O.2       3 UNK        -0.5091 
     57 CA        -78.5328   23.9351  -77.3400 C.3       3 UNK         0.0250 
     58 CB        -79.8267   23.3789  -77.9631 C.3       3 UNK        -0.1996 
     59 N         -78.6439   25.3844  -77.1922 N.am      3 UNK        -0.4254 
     60 C         -78.3537   26.2868  -78.1375 C.2       2 UNK         0.5004 
     61 O         -77.9584   25.9794  -79.2630 O.2       2 UNK        -0.5226 
     62 CA        -78.5563   27.7713  -77.7803 C.3       2 UNK         0.0269 
     63 CB        -78.8807   28.6395  -79.0137 C.3       2 UNK        -0.1926 
     64 N         -79.5940   27.9480  -76.7588 N.am      2 UNK        -0.4687 
     65 C         -79.6370   28.9593  -75.8795 C.2       1 UNK         0.5165 
     66 O         -78.8038   29.8656  -75.8485 O.2       1 UNK        -0.5079 
     67 H67       -83.9646   26.7637  -75.9359 H         1 UNK         0.0900 
     68 H68       -83.9120   27.3226  -77.6091 H         1 UNK         0.0900 
     69 H69       -84.9064   28.1737  -76.4240 H         1 UNK         0.0900 
     70 H70       -82.1401   27.3419  -74.7711 H         1 UNK         0.2959 
     71 H71       -81.0895   30.0013  -74.7202 H         1 UNK         0.1079 
     72 H72       -79.3374   28.9939  -73.2184 H         1 UNK         0.0837 
     73 H73       -79.9794   27.3999  -73.5400 H         1 UNK         0.0837 
     74 H74       -80.9976   29.5019  -69.9061 H         1 UNK         0.0685 
     75 H75       -80.1280   30.3962  -71.1280 H         1 UNK         0.0685 
     76 H76       -80.2624   26.8420  -69.8360 H         1 UNK         0.1434 
     77 H77       -75.9921   26.4617  -69.7021 H         1 UNK         0.1329 
     78 H78       -77.7789   30.1164  -71.0567 H         1 UNK         0.1335 
     79 H79       -75.2137   29.7912  -69.9318 H         1 UNK         0.0680 
     80 H80       -74.5780   28.2208  -70.3761 H         1 UNK         0.0680 
     81 H81       -73.0780   30.4187  -71.3863 H         1 UNK         0.1032 
     82 H82       -72.7664   28.9436  -72.2696 H         1 UNK         0.1032 
     83 H83       -73.3826   31.6814  -73.4865 H         1 UNK         0.0461 
     84 H84       -69.5185   30.9266  -74.2971 H         1 UNK         0.3453 
     85 H85       -70.8105   30.1671  -75.1930 H         1 UNK         0.3453 
     86 H86       -73.4389   29.0993  -74.7593 H         1 UNK         0.2984 
     87 H87       -74.7387   29.6372  -77.1736 H         1 UNK         0.0554 
     88 H88       -73.5499   29.7653  -79.3779 H         1 UNK         0.0847 
     89 H89       -72.2401   30.6693  -78.6185 H         1 UNK         0.0847 
     90 H90       -73.8546   31.3561  -78.7017 H         1 UNK         0.0847 
     91 H91       -73.7366   27.6999  -76.9710 H         1 UNK         0.3141 
     92 H92       -70.7792   26.3620  -77.6284 H         1 UNK         0.0743 
     93 H93       -69.5528   27.1281  -75.6073 H         1 UNK         0.0784 
     94 H94       -70.9690   26.8538  -74.6036 H         1 UNK         0.0784 
     95 H95       -70.1416   25.4946  -75.3664 H         1 UNK         0.0784 
     96 H96       -72.7792   25.5473  -75.6600 H         1 UNK         0.3213 
     97 H97       -75.3046   24.7968  -77.9137 H         1 UNK         0.0855 
     98 H98       -73.9237   22.7399  -78.3146 H         1 UNK         0.0814 
     99 H99       -75.2151   22.4421  -77.1667 H         1 UNK         0.0814 
    100 H100      -73.5599   22.6469  -76.5967 H         1 UNK         0.0814 
    101 H101      -75.0667   24.0737  -75.1849 H         1 UNK         0.3105 
    102 H102      -75.1283   26.7968  -73.5051 H         1 UNK         0.0547 
    103 H103      -77.9923   26.6610  -74.5571 H         1 UNK         0.0837 
    104 H104      -77.5345   27.2442  -72.9581 H         1 UNK         0.0837 
    105 H105      -77.0050   28.1097  -74.3906 H         1 UNK         0.0837 
    106 H106      -77.0212   24.4904  -73.6730 H         1 UNK         0.3020 
    107 H107      -74.9920   22.5150  -71.6807 H         1 UNK         0.1245 
    108 H108      -75.9485   23.8714  -69.7610 H         1 UNK         0.0781 
    109 H109      -76.5641   22.2580  -69.9131 H         1 UNK         0.0781 
    110 H110      -77.5113   24.9028  -68.3944 H         1 UNK         0.0836 
    111 H111      -79.2333   25.0294  -68.5825 H         1 UNK         0.0836 
    112 H112      -77.7224   22.2064  -72.4209 H         1 UNK         0.3022 
    113 H113      -77.0770   20.2939  -75.1656 H         1 UNK         0.0747 
    114 H114      -79.4910   20.3102  -74.6382 H         1 UNK         0.0793 
    115 H115      -78.5653   20.2132  -73.1543 H         1 UNK         0.0793 
    116 H116      -79.3157   21.7368  -73.6284 H         1 UNK         0.0793 
    117 H117      -77.7042   21.5841  -76.8553 H         1 UNK         0.3047 
    118 H118      -77.6829   23.7006  -77.9847 H         1 UNK         0.0822 
    119 H119      -79.7722   22.2975  -78.0940 H         1 UNK         0.0807 
    120 H120      -80.0109   23.8115  -78.9467 H         1 UNK         0.0807 
    121 H121      -80.6957   23.5891  -77.3381 H         1 UNK         0.0807 
    122 H122      -78.8898   25.6855  -76.2584 H         1 UNK         0.2946 
    123 H123      -77.6006   28.1079  -77.3712 H         1 UNK         0.1144 
    124 H124      -78.0960   28.5644  -79.7676 H         1 UNK         0.0793 
    125 H125      -78.9667   29.6933  -78.7485 H         1 UNK         0.0793 
    126 H126      -79.8173   28.3343  -79.4814 H         1 UNK         0.0793 
    127 H127      -80.3350   27.2609  -76.7417 H         1 UNK         0.2896 
@<TRIPOS>BOND
     1    1    2 1    
     2    1   67 1    
     3    1   68 1    
     4    1   69 1    
     5    2    3 2    
     6    2    4 am   BACKBONE|DICT|INTERRES
     7    4    5 1    
     8    4   70 1    
     9    5    6 1    
    10    5   65 1    
    11    5   71 1    
    12    6    7 1    
    13    6   72 1    
    14    6   73 1    
    15    7    8 1    
    16    8    9 1    
    17    8   74 1    
    18    8   75 1    
    19    9   10 ar   
    20    9   14 ar   
    21   10   11 ar   
    22   10   76 1    
    23   11   12 ar   
    24   11   48 1    
    25   12   13 ar   
    26   12   77 1    
    27   13   14 ar   
    28   13   15 1    
    29   14   78 1    
    30   15   16 1    
    31   15   79 1    
    32   15   80 1    
    33   16   17 1    
    34   17   18 1    
    35   17   81 1    
    36   17   82 1    
    37   18   19 1    
    38   18   22 1    
    39   18   83 1    
    40   19   20 am   BACKBONE|DICT|INTERRES
    41   19   21 2    
    42   20   84 1    
    43   20   85 1    
    44   22   23 am   BACKBONE|DICT|INTERRES
    45   22   86 1    
    46   23   24 2    
    47   23   25 1    
    48   25   26 1    
    49   25   27 1    
    50   25   87 1    
    51   26   88 1    
    52   26   89 1    
    53   26   90 1    
    54   27   28 am   BACKBONE|DICT|INTERRES
    55   27   91 1    
    56   28   29 2    
    57   28   30 1    
    58   30   31 1    
    59   30   32 1    
    60   30   92 1    
    61   31   93 1    
    62   31   94 1    
    63   31   95 1    
    64   32   33 am   BACKBONE|DICT|INTERRES
    65   32   96 1    
    66   33   34 2    
    67   33   35 1    
    68   35   36 1    
    69   35   37 1    
    70   35   97 1    
    71   36   98 1    
    72   36   99 1    
    73   36  100 1    
    74   37   38 am   BACKBONE|DICT|INTERRES
    75   37  101 1    
    76   38   39 2    
    77   38   40 1    
    78   40   41 1    
    79   40   42 1    
    80   40  102 1    
    81   41  103 1    
    82   41  104 1    
    83   41  105 1    
    84   42   43 am   BACKBONE|DICT|INTERRES
    85   42  106 1    
    86   43   44 2    
    87   43   45 1    
    88   45   46 1    
    89   45   49 1    
    90   45  107 1    
    91   46   47 1    
    92   46  108 1    
    93   46  109 1    
    94   47   48 1    
    95   48  110 1    
    96   48  111 1    
    97   49   50 am   BACKBONE|DICT|INTERRES
    98   49  112 1    
    99   50   51 2    
   100   50   52 1    
   101   52   53 1    
   102   52   54 1    
   103   52  113 1    
   104   53  114 1    
   105   53  115 1    
   106   53  116 1    
   107   54   55 am   BACKBONE|DICT|INTERRES
   108   54  117 1    
   109   55   56 2    
   110   55   57 1    
   111   57   58 1    
   112   57   59 1    
   113   57  118 1    
   114   58  119 1    
   115   58  120 1    
   116   58  121 1    
   117   59   60 am   BACKBONE|DICT|INTERRES
   118   59  122 1    
   119   60   61 2    
   120   60   62 1    
   121   62   63 1    
   122   62   64 1    
   123   62  123 1    
   124   63  124 1    
   125   63  125 1    
   126   63  126 1    
   127   64   65 am   BACKBONE|DICT|INTERRES
   128   64  127 1    
   129   65   66 2    
@<TRIPOS>SUBSTRUCTURE
     1 UNK         1 GROUP             0       ****    0 ROOT    
