@<TRIPOS>MOLECULE
3R135
127   129    1
SMALL
USER_CHARGES


@<TRIPOS>ATOM
      1 CA        -78.6572   30.6501  -75.6487 C.3       0 UNK        -0.1998 
      2 C         -78.6798   29.2695  -75.0116 C.2       0 UNK         0.4909 
      3 O         -77.6803   28.5551  -75.0765 O.2       0 UNK        -0.5240 
      4 N         -79.8095   28.8947  -74.3928 N.am      1 UNK        -0.4739 
      5 CA        -80.0040   27.6014  -73.7210 C.3       1 UNK         0.0864 
      6 C6        -81.2817   27.5532  -72.8326 C.3       11 UNK        -0.0881 
      7 S7        -81.6116   29.0730  -71.8656 S.3       11 UNK        -0.2682 
      8 C8        -80.7150   28.7757  -70.3048 C.3       11 UNK         0.0289 
      9 C9        -79.2168   28.6423  -70.5320 C.ar      11 UNK        -0.0687 
     10 C10       -78.5586   27.4547  -70.1997 C.ar      11 UNK        -0.0823 
     11 C11       -77.2049   27.2908  -70.5029 C.ar      11 UNK        -0.0830 
     12 C12       -76.5096   28.3263  -71.1336 C.ar      11 UNK        -0.1021 
     13 C13       -77.1536   29.5201  -71.4646 C.ar      11 UNK        -0.0753 
     14 C14       -78.5015   29.6827  -71.1352 C.ar      11 UNK        -0.0933 
     15 C15       -76.4358   30.5806  -72.2864 C.3       11 UNK         0.0166 
     16 S16       -75.4116   31.7160  -71.2962 S.3       11 UNK        -0.2615 
     17 C17       -73.8624   30.7846  -71.0252 C.3       11 UNK        -0.0865 
     18 CA        -72.8200   30.9610  -72.1643 C.3       10 UNK         0.0862 
     19 C         -71.4338   30.4362  -71.7146 C.2       10 UNK         0.5551 
     20 N         -70.5565   31.3146  -71.2501 N.am      10 UNK        -0.7319 
     21 O         -71.1634   29.2368  -71.7469 O.2       10 UNK        -0.5018 
     22 N         -73.2224   30.2493  -73.3833 N.am      10 UNK        -0.4509 
     23 C         -73.4938   30.8053  -74.5689 C.2       10 UNK         0.4899 
     24 O         -73.4914   32.0195  -74.7781 O.2       10 UNK        -0.4839 
     25 CA        -73.8416   29.8234  -75.7074 C.3       9 UNK         0.0222 
     26 CB        -73.8600   30.4909  -77.0984 C.3       9 UNK        -0.1966 
     27 N         -72.9968   28.6215  -75.7166 N.am      9 UNK        -0.4218 
     28 C         -71.6608   28.5584  -75.8486 C.2       9 UNK         0.5020 
     29 O         -70.9299   29.5398  -75.9865 O.2       9 UNK        -0.5274 
     30 CA        -71.0317   27.1562  -75.8326 C.3       8 UNK         0.0270 
     31 CB        -70.9000   26.6418  -74.3890 C.3       8 UNK        -0.1976 
     32 N         -71.8340   26.2136  -76.6142 N.am      8 UNK        -0.4313 
     33 C         -71.5565   25.8109  -77.8623 C.2       8 UNK         0.5041 
     34 O         -70.5272   26.1111  -78.4689 O.2       8 UNK        -0.5577 
     35 CA        -72.6096   24.9288  -78.5648 C.3       7 UNK         0.0284 
     36 CB        -72.3095   23.4398  -78.3285 C.3       7 UNK        -0.1958 
     37 N         -73.9795   25.2203  -78.1332 N.am      7 UNK        -0.4454 
     38 C         -74.6174   26.3771  -78.3606 C.2       7 UNK         0.5089 
     39 O         -74.1825   27.2575  -79.1028 O.2       7 UNK        -0.5125 
     40 CA        -75.9399   26.6222  -77.6063 C.3       6 UNK         0.0408 
     41 CB        -77.1360   26.6019  -78.5699 C.3       6 UNK        -0.1791 
     42 N         -76.2006   25.7286  -76.4657 N.am      6 UNK        -0.4762 
     43 C         -75.4315   25.6322  -75.3705 C.2       6 UNK         0.5007 
     44 O         -74.3522   26.2156  -75.2540 O.2       6 UNK        -0.5032 
     45 CA        -75.9199   24.7547  -74.2041 C.3       5 UNK         0.0783 
     46 C46       -76.2564   25.6577  -72.9988 C.3       11 UNK        -0.0857 
     47 S47       -76.8280   24.7456  -71.5250 S.3       11 UNK        -0.2512 
     48 C48       -76.5063   25.9702  -70.2138 C.3       11 UNK         0.0225 
     49 N         -77.0371   23.8705  -74.5521 N.am      5 UNK        -0.4615 
     50 C         -76.8861   22.6756  -75.1344 C.2       4 UNK         0.5053 
     51 O         -75.8272   22.3055  -75.6423 O.2       4 UNK        -0.5105 
     52 CA        -78.0747   21.7022  -75.1051 C.3       4 UNK         0.0263 
     53 CB        -77.9302   20.7615  -73.8901 C.3       4 UNK        -0.1981 
     54 N         -79.3864   22.3623  -75.0925 N.am      4 UNK        -0.4224 
     55 C         -80.5443   21.7363  -75.3639 C.2       3 UNK         0.4895 
     56 O         -80.6293   20.5357  -75.6267 O.2       3 UNK        -0.5091 
     57 CA        -81.8355   22.5799  -75.3604 C.3       3 UNK         0.0250 
     58 CB        -82.4980   22.5406  -73.9738 C.3       3 UNK        -0.1996 
     59 N         -81.6177   23.9732  -75.7493 N.am      3 UNK        -0.4254 
     60 C         -81.1567   24.3719  -76.9412 C.2       2 UNK         0.5004 
     61 O         -81.0270   23.6157  -77.9046 O.2       2 UNK        -0.5226 
     62 CA        -80.7265   25.8430  -77.0928 C.3       2 UNK         0.0269 
     63 CB        -81.5962   26.5603  -78.1393 C.3       2 UNK        -0.1926 
     64 N         -80.6834   26.6677  -75.8759 N.am      2 UNK        -0.4687 
     65 C         -80.0073   26.4404  -74.7377 C.2       1 UNK         0.5165 
     66 O         -79.4116   25.3913  -74.4864 O.2       1 UNK        -0.5079 
     67 H67       -79.5523   31.2240  -75.4095 H         1 UNK         0.0900 
     68 H68       -78.5881   30.5592  -76.7322 H         1 UNK         0.0900 
     69 H69       -77.7910   31.2110  -75.2992 H         1 UNK         0.0900 
     70 H70       -80.5876   29.5363  -74.3336 H         1 UNK         0.2959 
     71 H71       -79.1395   27.4471  -73.0734 H         1 UNK         0.1079 
     72 H72       -82.1687   27.3882  -73.4475 H         1 UNK         0.0837 
     73 H73       -81.2317   26.7016  -72.1513 H         1 UNK         0.0837 
     74 H74       -81.1228   27.8863  -69.8220 H         1 UNK         0.0685 
     75 H75       -80.8985   29.6094  -69.6259 H         1 UNK         0.0685 
     76 H76       -79.1061   26.6403  -69.7449 H         1 UNK         0.1434 
     77 H77       -75.4788   28.1765  -71.4167 H         1 UNK         0.1329 
     78 H78       -79.0165   30.5921  -71.4132 H         1 UNK         0.1335 
     79 H79       -75.8421   30.0946  -73.0579 H         1 UNK         0.0680 
     80 H80       -77.1700   31.1818  -72.8241 H         1 UNK         0.0680 
     81 H81       -74.0714   29.7325  -70.8428 H         1 UNK         0.1032 
     82 H82       -73.4493   31.1590  -70.0863 H         1 UNK         0.1032 
     83 H83       -72.7186   32.0279  -72.3739 H         1 UNK         0.0461 
     84 H84       -69.6548   30.9880  -70.9392 H         1 UNK         0.3453 
     85 H85       -70.7738   32.2984  -71.2092 H         1 UNK         0.3453 
     86 H86       -73.1686   29.2426  -73.3248 H         1 UNK         0.2984 
     87 H87       -74.8549   29.4737  -75.5024 H         1 UNK         0.0554 
     88 H88       -74.5831   31.3066  -77.1316 H         1 UNK         0.0847 
     89 H89       -74.1405   29.7801  -77.8755 H         1 UNK         0.0847 
     90 H90       -72.8868   30.9072  -77.3603 H         1 UNK         0.0847 
     91 H91       -73.4967   27.7465  -75.5653 H         1 UNK         0.3141 
     92 H92       -70.0274   27.2349  -76.2544 H         1 UNK         0.0743 
     93 H93       -70.3090   27.3301  -73.7828 H         1 UNK         0.0784 
     94 H94       -71.8704   26.5318  -73.9032 H         1 UNK         0.0784 
     95 H95       -70.4003   25.6735  -74.3596 H         1 UNK         0.0784 
     96 H96       -72.7260   25.9463  -76.2087 H         1 UNK         0.3213 
     97 H97       -72.5438   25.1273  -79.6369 H         1 UNK         0.0855 
     98 H98       -72.3809   23.1746  -77.2727 H         1 UNK         0.0814 
     99 H99       -71.3011   23.1885  -78.6603 H         1 UNK         0.0814 
    100 H100      -72.9992   22.8027  -78.8826 H         1 UNK         0.0814 
    101 H101      -74.4257   24.5466  -77.5271 H         1 UNK         0.3105 
    102 H102      -75.8666   27.6342  -77.2019 H         1 UNK         0.0547 
    103 H103      -76.9169   27.1515  -79.4867 H         1 UNK         0.0837 
    104 H104      -77.4141   25.5874  -78.8567 H         1 UNK         0.0837 
    105 H105      -77.9994   27.0882  -78.1184 H         1 UNK         0.0837 
    106 H106      -77.0709   25.2175  -76.4701 H         1 UNK         0.3020 
    107 H107      -75.0703   24.1304  -73.9162 H         1 UNK         0.1245 
    108 H108      -77.0231   26.3855  -73.2698 H         1 UNK         0.0781 
    109 H109      -75.3713   26.2308  -72.7174 H         1 UNK         0.0781 
    110 H110      -76.8491   25.5697  -69.2587 H         1 UNK         0.0836 
    111 H111      -75.4300   26.1193  -70.1133 H         1 UNK         0.0836 
    112 H112      -77.9385   24.1667  -74.1945 H         1 UNK         0.3022 
    113 H113      -78.0080   21.1046  -76.0169 H         1 UNK         0.0747 
    114 H114      -76.9430   20.2975  -73.8671 H         1 UNK         0.0793 
    115 H115      -78.6587   19.9514  -73.9132 H         1 UNK         0.0793 
    116 H116      -78.0588   21.3007  -72.9506 H         1 UNK         0.0793 
    117 H117      -79.4070   23.3607  -74.9162 H         1 UNK         0.3047 
    118 H118      -82.5218   22.1347  -76.0840 H         1 UNK         0.0822 
    119 H119      -82.6953   21.5129  -73.6653 H         1 UNK         0.0807 
    120 H120      -83.4535   23.0656  -73.9745 H         1 UNK         0.0807 
    121 H121      -81.8646   22.9940  -73.2101 H         1 UNK         0.0807 
    122 H122      -81.6785   24.6649  -75.0170 H         1 UNK         0.2946 
    123 H123      -79.7079   25.7967  -77.4747 H         1 UNK         0.1144 
    124 H124      -81.6219   26.0072  -79.0795 H         1 UNK         0.0793 
    125 H125      -81.2083   27.5537  -78.3656 H         1 UNK         0.0793 
    126 H126      -82.6263   26.6698  -77.7978 H         1 UNK         0.0793 
    127 H127      -81.1377   27.5665  -75.9515 H         1 UNK         0.2896 
@<TRIPOS>BOND
     1    1    2 1    
     2    1   67 1    
     3    1   68 1    
     4    1   69 1    
     5    2    3 2    
     6    2    4 am   BACKBONE|DICT|INTERRES
     7    4    5 1    
     8    4   70 1    
     9    5    6 1    
    10    5   65 1    
    11    5   71 1    
    12    6    7 1    
    13    6   72 1    
    14    6   73 1    
    15    7    8 1    
    16    8    9 1    
    17    8   74 1    
    18    8   75 1    
    19    9   10 ar   
    20    9   14 ar   
    21   10   11 ar   
    22   10   76 1    
    23   11   12 ar   
    24   11   48 1    
    25   12   13 ar   
    26   12   77 1    
    27   13   14 ar   
    28   13   15 1    
    29   14   78 1    
    30   15   16 1    
    31   15   79 1    
    32   15   80 1    
    33   16   17 1    
    34   17   18 1    
    35   17   81 1    
    36   17   82 1    
    37   18   19 1    
    38   18   22 1    
    39   18   83 1    
    40   19   20 am   BACKBONE|DICT|INTERRES
    41   19   21 2    
    42   20   84 1    
    43   20   85 1    
    44   22   23 am   BACKBONE|DICT|INTERRES
    45   22   86 1    
    46   23   24 2    
    47   23   25 1    
    48   25   26 1    
    49   25   27 1    
    50   25   87 1    
    51   26   88 1    
    52   26   89 1    
    53   26   90 1    
    54   27   28 am   BACKBONE|DICT|INTERRES
    55   27   91 1    
    56   28   29 2    
    57   28   30 1    
    58   30   31 1    
    59   30   32 1    
    60   30   92 1    
    61   31   93 1    
    62   31   94 1    
    63   31   95 1    
    64   32   33 am   BACKBONE|DICT|INTERRES
    65   32   96 1    
    66   33   34 2    
    67   33   35 1    
    68   35   36 1    
    69   35   37 1    
    70   35   97 1    
    71   36   98 1    
    72   36   99 1    
    73   36  100 1    
    74   37   38 am   BACKBONE|DICT|INTERRES
    75   37  101 1    
    76   38   39 2    
    77   38   40 1    
    78   40   41 1    
    79   40   42 1    
    80   40  102 1    
    81   41  103 1    
    82   41  104 1    
    83   41  105 1    
    84   42   43 am   BACKBONE|DICT|INTERRES
    85   42  106 1    
    86   43   44 2    
    87   43   45 1    
    88   45   46 1    
    89   45   49 1    
    90   45  107 1    
    91   46   47 1    
    92   46  108 1    
    93   46  109 1    
    94   47   48 1    
    95   48  110 1    
    96   48  111 1    
    97   49   50 am   BACKBONE|DICT|INTERRES
    98   49  112 1    
    99   50   51 2    
   100   50   52 1    
   101   52   53 1    
   102   52   54 1    
   103   52  113 1    
   104   53  114 1    
   105   53  115 1    
   106   53  116 1    
   107   54   55 am   BACKBONE|DICT|INTERRES
   108   54  117 1    
   109   55   56 2    
   110   55   57 1    
   111   57   58 1    
   112   57   59 1    
   113   57  118 1    
   114   58  119 1    
   115   58  120 1    
   116   58  121 1    
   117   59   60 am   BACKBONE|DICT|INTERRES
   118   59  122 1    
   119   60   61 2    
   120   60   62 1    
   121   62   63 1    
   122   62   64 1    
   123   62  123 1    
   124   63  124 1    
   125   63  125 1    
   126   63  126 1    
   127   64   65 am   BACKBONE|DICT|INTERRES
   128   64  127 1    
   129   65   66 2    
@<TRIPOS>SUBSTRUCTURE
     1 UNK         1 GROUP             0       ****    0 ROOT    
