@<TRIPOS>MOLECULE
3R135
127   129    1
SMALL
USER_CHARGES


@<TRIPOS>ATOM
      1 CA        -83.8002   30.2330  -76.7326 C.3       0 UNK        -0.1998 
      2 C         -82.6756   29.2900  -76.3313 C.2       0 UNK         0.4909 
      3 O         -82.1246   28.5951  -77.1860 O.2       0 UNK        -0.5240 
      4 N         -82.3246   29.2678  -75.0396 N.am      1 UNK        -0.4739 
      5 CA        -81.2973   28.3923  -74.4648 C.3       1 UNK         0.0864 
      6 C6        -80.8919   28.8409  -73.0379 C.3       11 UNK        -0.0881 
      7 S7        -80.2149   30.5370  -72.9913 S.3       11 UNK        -0.2682 
      8 C8        -78.4777   30.2824  -73.4779 C.3       11 UNK         0.0289 
      9 C9        -77.6252   29.7385  -72.3400 C.ar      11 UNK        -0.0687 
     10 C10       -77.4602   28.3605  -72.1793 C.ar      11 UNK        -0.0823 
     11 C11       -76.6430   27.8429  -71.1643 C.ar      11 UNK        -0.0830 
     12 C12       -75.9955   28.7362  -70.3056 C.ar      11 UNK        -0.1021 
     13 C13       -76.1541   30.1178  -70.4500 C.ar      11 UNK        -0.0753 
     14 C14       -76.9735   30.6135  -71.4675 C.ar      11 UNK        -0.0933 
     15 C15       -75.4481   31.0738  -69.4988 C.3       11 UNK         0.0166 
     16 S16       -74.0920   31.9843  -70.3060 S.3       11 UNK        -0.2615 
     17 C17       -72.9419   30.6443  -70.7775 C.3       11 UNK        -0.0865 
     18 CA        -72.7099   30.5698  -72.3185 C.3       10 UNK         0.0862 
     19 C         -71.5539   31.5008  -72.8057 C.2       10 UNK         0.5551 
     20 N         -70.7013   31.0850  -73.7354 N.am      10 UNK        -0.7319 
     21 O         -71.4376   32.6375  -72.3548 O.2       10 UNK        -0.5018 
     22 N         -72.6371   29.1886  -72.8257 N.am      10 UNK        -0.4509 
     23 C         -71.7679   28.2463  -72.4363 C.2       10 UNK         0.4899 
     24 O         -70.9775   28.3775  -71.5018 O.2       10 UNK        -0.4839 
     25 CA        -71.7579   26.9365  -73.2476 C.3       9 UNK         0.0222 
     26 CB        -72.6974   25.9027  -72.6109 C.3       9 UNK        -0.1966 
     27 N         -72.1028   27.0971  -74.6667 N.am      9 UNK        -0.4218 
     28 C         -71.4187   27.8511  -75.5427 C.2       9 UNK         0.5020 
     29 O         -70.4441   28.5398  -75.2390 O.2       9 UNK        -0.5274 
     30 CA        -71.9094   27.8572  -76.9947 C.3       8 UNK         0.0270 
     31 CB        -71.3661   26.6317  -77.7484 C.3       8 UNK        -0.1976 
     32 N         -73.3692   27.8515  -77.0636 N.am      8 UNK        -0.4313 
     33 C         -74.1411   28.9165  -77.3212 C.2       8 UNK         0.5041 
     34 O         -73.6951   30.0544  -77.4760 O.2       8 UNK        -0.5577 
     35 CA        -75.6683   28.6855  -77.4134 C.3       7 UNK         0.0284 
     36 CB        -76.3178   29.5105  -78.5442 C.3       7 UNK        -0.1958 
     37 N         -76.0529   27.2693  -77.5084 N.am      7 UNK        -0.4454 
     38 C         -75.7237   26.3843  -78.4635 C.2       7 UNK         0.5089 
     39 O         -75.1671   26.6872  -79.5191 O.2       7 UNK        -0.5125 
     40 CA        -76.0138   24.9007  -78.1528 C.3       6 UNK         0.0408 
     41 CB        -74.9403   23.9651  -78.7454 C.3       6 UNK        -0.1791 
     42 N         -76.2010   24.6113  -76.7232 N.am      6 UNK        -0.4762 
     43 C         -75.3350   24.7956  -75.7107 C.2       6 UNK         0.5007 
     44 O         -74.2267   25.3243  -75.8311 O.2       6 UNK        -0.5032 
     45 CA        -75.8347   24.3839  -74.3142 C.3       5 UNK         0.0783 
     46 C46       -76.5951   25.5726  -73.6812 C.3       11 UNK        -0.0857 
     47 S47       -77.3204   25.2013  -72.0482 S.3       11 UNK        -0.2512 
     48 C48       -76.4149   26.3427  -70.9435 C.3       11 UNK         0.0225 
     49 N         -76.6600   23.1769  -74.3986 N.am      5 UNK        -0.4615 
     50 C         -76.1781   21.9282  -74.4471 C.2       4 UNK         0.5053 
     51 O         -74.9817   21.6519  -74.3589 O.2       4 UNK        -0.5105 
     52 CA        -77.2029   20.7932  -74.6260 C.3       4 UNK         0.0263 
     53 CB        -77.6689   20.2723  -73.2568 C.3       4 UNK        -0.1981 
     54 N         -78.3706   21.2008  -75.4115 N.am      4 UNK        -0.4224 
     55 C         -78.3491   21.4713  -76.7250 C.2       3 UNK         0.4895 
     56 O         -77.3620   21.3109  -77.4422 O.2       3 UNK        -0.5091 
     57 CA        -79.6383   22.0455  -77.3408 C.3       3 UNK         0.0250 
     58 CB        -80.4763   20.9237  -77.9753 C.3       3 UNK        -0.1996 
     59 N         -80.4711   22.7995  -76.3943 N.am      3 UNK        -0.4254 
     60 C         -80.0988   23.9328  -75.7844 C.2       2 UNK         0.5004 
     61 O         -78.9874   24.4533  -75.9198 O.2       2 UNK        -0.5226 
     62 CA        -81.1111   24.5582  -74.8210 C.3       2 UNK         0.0269 
     63 CB        -80.9972   23.9220  -73.4236 C.3       2 UNK        -0.1926 
     64 N         -80.8519   25.9930  -74.7359 N.am      2 UNK        -0.4687 
     65 C         -81.7706   26.9236  -74.4550 C.2       1 UNK         0.5165 
     66 O         -82.9431   26.6616  -74.1721 O.2       1 UNK        -0.5079 
     67 H67       -83.4452   30.9450  -77.4771 H         1 UNK         0.0900 
     68 H68       -84.1836   30.7954  -75.8814 H         1 UNK         0.0900 
     69 H69       -84.6256   29.6689  -77.1659 H         1 UNK         0.0900 
     70 H70       -82.8148   29.8535  -74.3790 H         1 UNK         0.2959 
     71 H71       -80.4181   28.4540  -75.1095 H         1 UNK         0.1079 
     72 H72       -81.7602   28.8141  -72.3764 H         1 UNK         0.0837 
     73 H73       -80.1733   28.1511  -72.5967 H         1 UNK         0.0837 
     74 H74       -78.4265   29.6204  -74.3432 H         1 UNK         0.0685 
     75 H75       -78.0704   31.2381  -73.8112 H         1 UNK         0.0685 
     76 H76       -77.9753   27.7018  -72.8591 H         1 UNK         0.1434 
     77 H77       -75.3626   28.3517  -69.5170 H         1 UNK         0.1329 
     78 H78       -77.0947   31.6819  -71.5848 H         1 UNK         0.1335 
     79 H79       -76.1718   31.7923  -69.1116 H         1 UNK         0.0680 
     80 H80       -75.0543   30.5414  -68.6315 H         1 UNK         0.0680 
     81 H81       -73.3410   29.7000  -70.4082 H         1 UNK         0.1032 
     82 H82       -71.9995   30.7774  -70.2429 H         1 UNK         0.1032 
     83 H83       -73.6013   30.9651  -72.8073 H         1 UNK         0.0461 
     84 H84       -69.9714   31.7090  -74.0397 H         1 UNK         0.3453 
     85 H85       -70.7562   30.1521  -74.1297 H         1 UNK         0.3453 
     86 H86       -73.2340   28.9843  -73.6132 H         1 UNK         0.2984 
     87 H87       -70.7415   26.5398  -73.2053 H         1 UNK         0.0554 
     88 H88       -72.6076   24.9316  -73.0980 H         1 UNK         0.0847 
     89 H89       -73.7362   26.2208  -72.6773 H         1 UNK         0.0847 
     90 H90       -72.4652   25.7574  -71.5548 H         1 UNK         0.0847 
     91 H91       -72.8663   26.5275  -75.0171 H         1 UNK         0.3141 
     92 H92       -71.5148   28.7533  -77.4787 H         1 UNK         0.0743 
     93 H93       -71.7202   25.6958  -77.3135 H         1 UNK         0.0784 
     94 H94       -71.6693   26.6473  -78.7955 H         1 UNK         0.0784 
     95 H95       -70.2756   26.6114  -77.7265 H         1 UNK         0.0784 
     96 H96       -73.8211   26.9561  -76.9088 H         1 UNK         0.3213 
     97 H97       -76.0783   29.0458  -76.4686 H         1 UNK         0.0855 
     98 H98       -76.1604   30.5787  -78.3898 H         1 UNK         0.0814 
     99 H99       -77.3945   29.3469  -78.5873 H         1 UNK         0.0814 
    100 H100      -75.9003   29.2609  -79.5200 H         1 UNK         0.0814 
    101 H101      -76.5287   26.8934  -76.7011 H         1 UNK         0.3105 
    102 H102      -76.9639   24.6677  -78.6358 H         1 UNK         0.0547 
    103 H103      -74.8870   24.0634  -79.8303 H         1 UNK         0.0837 
    104 H104      -73.9483   24.1853  -78.3496 H         1 UNK         0.0837 
    105 H105      -75.1640   22.9205  -78.5283 H         1 UNK         0.0837 
    106 H106      -77.1282   24.2728  -76.4783 H         1 UNK         0.3020 
    107 H107      -74.9587   24.1666  -73.6995 H         1 UNK         0.1245 
    108 H108      -77.4151   25.8909  -74.3269 H         1 UNK         0.0781 
    109 H109      -75.9315   26.4346  -73.5949 H         1 UNK         0.0781 
    110 H110      -75.3491   26.1259  -71.0116 H         1 UNK         0.0836 
    111 H111      -76.7047   26.1024  -69.9196 H         1 UNK         0.0836 
    112 H112      -77.6540   23.3265  -74.4991 H         1 UNK         0.3022 
    113 H113      -76.7048   19.9766  -75.1535 H         1 UNK         0.0747 
    114 H114      -78.3439   19.4229  -73.3634 H         1 UNK         0.0793 
    115 H115      -76.8203   19.9365  -72.6589 H         1 UNK         0.0793 
    116 H116      -78.1852   21.0439  -72.6839 H         1 UNK         0.0793 
    117 H117      -79.2356   21.3368  -74.9096 H         1 UNK         0.3047 
    118 H118      -79.3352   22.7344  -78.1325 H         1 UNK         0.0822 
    119 H119      -81.3429   21.3240  -78.5019 H         1 UNK         0.0807 
    120 H120      -80.8339   20.2135  -77.2286 H         1 UNK         0.0807 
    121 H121      -79.8892   20.3623  -78.7037 H         1 UNK         0.0807 
    122 H122      -81.3951   22.4308  -76.2174 H         1 UNK         0.2946 
    123 H123      -82.1150   24.3940  -75.2205 H         1 UNK         0.1144 
    124 H124      -81.1905   22.8493  -73.4604 H         1 UNK         0.0793 
    125 H125      -81.7195   24.3544  -72.7310 H         1 UNK         0.0793 
    126 H126      -80.0034   24.0620  -72.9971 H         1 UNK         0.0793 
    127 H127      -79.9149   26.2586  -75.0109 H         1 UNK         0.2896 
@<TRIPOS>BOND
     1    1    2 1    
     2    1   67 1    
     3    1   68 1    
     4    1   69 1    
     5    2    3 2    
     6    2    4 am   BACKBONE|DICT|INTERRES
     7    4    5 1    
     8    4   70 1    
     9    5    6 1    
    10    5   65 1    
    11    5   71 1    
    12    6    7 1    
    13    6   72 1    
    14    6   73 1    
    15    7    8 1    
    16    8    9 1    
    17    8   74 1    
    18    8   75 1    
    19    9   10 ar   
    20    9   14 ar   
    21   10   11 ar   
    22   10   76 1    
    23   11   12 ar   
    24   11   48 1    
    25   12   13 ar   
    26   12   77 1    
    27   13   14 ar   
    28   13   15 1    
    29   14   78 1    
    30   15   16 1    
    31   15   79 1    
    32   15   80 1    
    33   16   17 1    
    34   17   18 1    
    35   17   81 1    
    36   17   82 1    
    37   18   19 1    
    38   18   22 1    
    39   18   83 1    
    40   19   20 am   BACKBONE|DICT|INTERRES
    41   19   21 2    
    42   20   84 1    
    43   20   85 1    
    44   22   23 am   BACKBONE|DICT|INTERRES
    45   22   86 1    
    46   23   24 2    
    47   23   25 1    
    48   25   26 1    
    49   25   27 1    
    50   25   87 1    
    51   26   88 1    
    52   26   89 1    
    53   26   90 1    
    54   27   28 am   BACKBONE|DICT|INTERRES
    55   27   91 1    
    56   28   29 2    
    57   28   30 1    
    58   30   31 1    
    59   30   32 1    
    60   30   92 1    
    61   31   93 1    
    62   31   94 1    
    63   31   95 1    
    64   32   33 am   BACKBONE|DICT|INTERRES
    65   32   96 1    
    66   33   34 2    
    67   33   35 1    
    68   35   36 1    
    69   35   37 1    
    70   35   97 1    
    71   36   98 1    
    72   36   99 1    
    73   36  100 1    
    74   37   38 am   BACKBONE|DICT|INTERRES
    75   37  101 1    
    76   38   39 2    
    77   38   40 1    
    78   40   41 1    
    79   40   42 1    
    80   40  102 1    
    81   41  103 1    
    82   41  104 1    
    83   41  105 1    
    84   42   43 am   BACKBONE|DICT|INTERRES
    85   42  106 1    
    86   43   44 2    
    87   43   45 1    
    88   45   46 1    
    89   45   49 1    
    90   45  107 1    
    91   46   47 1    
    92   46  108 1    
    93   46  109 1    
    94   47   48 1    
    95   48  110 1    
    96   48  111 1    
    97   49   50 am   BACKBONE|DICT|INTERRES
    98   49  112 1    
    99   50   51 2    
   100   50   52 1    
   101   52   53 1    
   102   52   54 1    
   103   52  113 1    
   104   53  114 1    
   105   53  115 1    
   106   53  116 1    
   107   54   55 am   BACKBONE|DICT|INTERRES
   108   54  117 1    
   109   55   56 2    
   110   55   57 1    
   111   57   58 1    
   112   57   59 1    
   113   57  118 1    
   114   58  119 1    
   115   58  120 1    
   116   58  121 1    
   117   59   60 am   BACKBONE|DICT|INTERRES
   118   59  122 1    
   119   60   61 2    
   120   60   62 1    
   121   62   63 1    
   122   62   64 1    
   123   62  123 1    
   124   63  124 1    
   125   63  125 1    
   126   63  126 1    
   127   64   65 am   BACKBONE|DICT|INTERRES
   128   64  127 1    
   129   65   66 2    
@<TRIPOS>SUBSTRUCTURE
     1 UNK         1 GROUP             0       ****    0 ROOT    
