@<TRIPOS>MOLECULE
3R135
127   129    1
SMALL
USER_CHARGES


@<TRIPOS>ATOM
      1 CA        -80.6288   24.5947  -70.6163 C.3       0 UNK        -0.1998 
      2 C         -81.4370   25.0252  -71.8306 C.2       0 UNK         0.4909 
      3 O         -82.4068   24.3517  -72.1793 O.2       0 UNK        -0.5240 
      4 N         -81.0620   26.1442  -72.4637 N.am      1 UNK        -0.4739 
      5 CA        -81.7467   26.6982  -73.6341 C.3       1 UNK         0.0864 
      6 C6        -81.8713   28.2448  -73.5356 C.3       11 UNK        -0.0881 
      7 S7        -80.3240   29.1869  -73.7876 S.3       11 UNK        -0.2682 
      8 C8        -79.8101   29.6333  -72.0994 C.3       11 UNK         0.0289 
      9 C9        -78.3768   29.1921  -71.8447 C.ar      11 UNK        -0.0687 
     10 C10       -78.1063   28.1417  -70.9645 C.ar      11 UNK        -0.0823 
     11 C11       -76.7933   27.7059  -70.7626 C.ar      11 UNK        -0.0830 
     12 C12       -75.7459   28.3383  -71.4383 C.ar      11 UNK        -0.1021 
     13 C13       -75.9998   29.4067  -72.3041 C.ar      11 UNK        -0.0753 
     14 C14       -77.3183   29.8293  -72.5006 C.ar      11 UNK        -0.0933 
     15 C15       -74.8593   30.0856  -73.0503 C.3       11 UNK         0.0166 
     16 S16       -73.5972   30.7432  -71.9086 S.3       11 UNK        -0.2615 
     17 C17       -73.0725   32.2869  -72.7377 C.3       11 UNK        -0.0865 
     18 CA        -71.8247   32.1370  -73.6472 C.3       10 UNK         0.0862 
     19 C         -70.5153   31.8662  -72.8456 C.2       10 UNK         0.5551 
     20 N         -69.7641   30.8049  -73.1183 N.am      10 UNK        -0.7319 
     21 O         -70.1643   32.6505  -71.9672 O.2       10 UNK        -0.5018 
     22 N         -72.0813   31.1984  -74.7467 N.am      10 UNK        -0.4509 
     23 C         -71.4808   31.2258  -75.9412 C.2       10 UNK         0.4899 
     24 O         -70.6992   32.1102  -76.2952 O.2       10 UNK        -0.4839 
     25 CA        -71.8171   30.0621  -76.8946 C.3       9 UNK         0.0222 
     26 CB        -70.7611   29.8788  -78.0051 C.3       9 UNK        -0.1966 
     27 N         -72.0655   28.7854  -76.2092 N.am      9 UNK        -0.4218 
     28 C         -71.2193   28.1143  -75.4071 C.2       9 UNK         0.5020 
     29 O         -70.1231   28.5530  -75.0553 O.2       9 UNK        -0.5274 
     30 CA        -71.6597   26.7298  -74.8868 C.3       8 UNK         0.0270 
     31 CB        -72.0322   26.8166  -73.3969 C.3       8 UNK        -0.1976 
     32 N         -72.7789   26.1436  -75.6312 N.am      8 UNK        -0.4313 
     33 C         -72.7290   25.7562  -76.9166 C.2       8 UNK         0.5041 
     34 O         -71.6849   25.7060  -77.5677 O.2       8 UNK        -0.5577 
     35 CA        -74.0584   25.4074  -77.6206 C.3       7 UNK         0.0284 
     36 CB        -74.1926   23.8858  -77.7960 C.3       7 UNK        -0.1958 
     37 N         -75.2586   25.9119  -76.9469 N.am      7 UNK        -0.4454 
     38 C         -75.5279   27.1907  -76.6435 C.2       7 UNK         0.5089 
     39 O         -74.8222   28.1398  -76.9861 O.2       7 UNK        -0.5125 
     40 CA        -76.7530   27.4430  -75.7424 C.3       6 UNK         0.0408 
     41 CB        -77.9423   27.8728  -76.6101 C.3       6 UNK        -0.1791 
     42 N         -77.1427   26.3001  -74.8970 N.am      6 UNK        -0.4762 
     43 C         -76.3279   25.6703  -74.0301 C.2       6 UNK         0.5007 
     44 O         -75.1469   25.9856  -73.8781 O.2       6 UNK        -0.5032 
     45 CA        -76.8606   24.4316  -73.2848 C.3       5 UNK         0.0783 
     46 C46       -77.3201   24.7235  -71.8375 C.3       11 UNK        -0.0857 
     47 S47       -75.9357   25.0572  -70.6958 S.3       11 UNK        -0.2512 
     48 C48       -76.5079   26.5474  -69.8176 C.3       11 UNK         0.0225 
     49 N         -77.8987   23.7364  -74.0509 N.am      5 UNK        -0.4615 
     50 C         -78.0458   22.4058  -74.0549 C.2       4 UNK         0.5053 
     51 O         -77.3348   21.6352  -73.4089 O.2       4 UNK        -0.5105 
     52 CA        -79.1720   21.8239  -74.9224 C.3       4 UNK         0.0263 
     53 CB        -80.5007   21.8306  -74.1507 C.3       4 UNK        -0.1981 
     54 N         -79.3560   22.5170  -76.1969 N.am      4 UNK        -0.4224 
     55 C         -78.4654   22.6032  -77.1923 C.2       3 UNK         0.4895 
     56 O         -77.3379   22.1121  -77.1453 O.2       3 UNK        -0.5091 
     57 CA        -78.8930   23.3691  -78.4608 C.3       3 UNK         0.0250 
     58 CB        -79.6268   22.4367  -79.4442 C.3       3 UNK        -0.1996 
     59 N         -79.6593   24.6027  -78.2166 N.am      3 UNK        -0.4254 
     60 C         -80.8690   24.7470  -77.6552 C.2       2 UNK         0.5004 
     61 O         -81.5813   23.8120  -77.2822 O.2       2 UNK        -0.5226 
     62 CA        -81.3515   26.1889  -77.4386 C.3       2 UNK         0.0269 
     63 CB        -82.5025   26.5199  -78.4023 C.3       2 UNK        -0.1926 
     64 N         -81.7881   26.4418  -76.0616 N.am      2 UNK        -0.4687 
     65 C         -81.0775   26.2248  -74.9432 C.2       1 UNK         0.5165 
     66 O         -79.9443   25.7251  -74.9232 O.2       1 UNK        -0.5079 
     67 H67       -79.8812   25.3343  -70.3342 H         1 UNK         0.0900 
     68 H68       -80.1274   23.6487  -70.8171 H         1 UNK         0.0900 
     69 H69       -81.2903   24.4499  -69.7626 H         1 UNK         0.0900 
     70 H70       -80.2251   26.6352  -72.1883 H         1 UNK         0.2959 
     71 H71       -82.7665   26.3068  -73.6573 H         1 UNK         0.1079 
     72 H72       -82.5801   28.5982  -74.2864 H         1 UNK         0.0837 
     73 H73       -82.3207   28.5217  -72.5809 H         1 UNK         0.0837 
     74 H74       -79.8860   30.7147  -71.9783 H         1 UNK         0.0685 
     75 H75       -80.4840   29.1941  -71.3627 H         1 UNK         0.0685 
     76 H76       -78.9190   27.6572  -70.4419 H         1 UNK         0.1434 
     77 H77       -74.7308   27.9937  -71.2946 H         1 UNK         0.1329 
     78 H78       -77.5297   30.6427  -73.1812 H         1 UNK         0.1335 
     79 H79       -74.3969   29.3629  -73.7236 H         1 UNK         0.0680 
     80 H80       -75.2481   30.8866  -73.6803 H         1 UNK         0.0680 
     81 H81       -72.8825   33.0338  -71.9646 H         1 UNK         0.1032 
     82 H82       -73.9028   32.6930  -73.3167 H         1 UNK         0.1032 
     83 H83       -71.6681   33.1176  -74.1008 H         1 UNK         0.0461 
     84 H84       -68.9189   30.6562  -72.5909 H         1 UNK         0.3453 
     85 H85       -70.0195   30.1493  -73.8489 H         1 UNK         0.3453 
     86 H86       -72.6782   30.4167  -74.5265 H         1 UNK         0.2984 
     87 H87       -72.7580   30.3308  -77.3769 H         1 UNK         0.0554 
     88 H88       -71.0297   29.0631  -78.6765 H         1 UNK         0.0847 
     89 H89       -69.7752   29.6618  -77.5923 H         1 UNK         0.0847 
     90 H90       -70.6686   30.7796  -78.6129 H         1 UNK         0.0847 
     91 H91       -72.9677   28.3638  -76.4162 H         1 UNK         0.3141 
     92 H92       -70.8037   26.0594  -74.9877 H         1 UNK         0.0743 
     93 H93       -72.8857   27.4745  -73.2308 H         1 UNK         0.0784 
     94 H94       -72.2853   25.8363  -72.9926 H         1 UNK         0.0784 
     95 H95       -71.2018   27.2061  -72.8063 H         1 UNK         0.0784 
     96 H96       -73.6719   26.1154  -75.1440 H         1 UNK         0.3213 
     97 H97       -74.0243   25.8674  -78.6104 H         1 UNK         0.0855 
     98 H98       -74.2664   23.3735  -76.8358 H         1 UNK         0.0814 
     99 H99       -73.3285   23.4743  -78.3196 H         1 UNK         0.0814 
    100 H100      -75.0754   23.6279  -78.3816 H         1 UNK         0.0814 
    101 H101      -75.8989   25.2148  -76.5967 H         1 UNK         0.3105 
    102 H102      -76.5024   28.2671  -75.0722 H         1 UNK         0.0547 
    103 H103      -77.7042   28.7717  -77.1805 H         1 UNK         0.0837 
    104 H104      -78.2117   27.0961  -77.3238 H         1 UNK         0.0837 
    105 H105      -78.8187   28.0997  -76.0064 H         1 UNK         0.0837 
    106 H106      -78.1250   26.0393  -74.9343 H         1 UNK         0.3020 
    107 H107      -75.9983   23.7625  -73.2234 H         1 UNK         0.1245 
    108 H108      -77.8382   23.8532  -71.4343 H         1 UNK         0.0781 
    109 H109      -78.0461   25.5342  -71.8322 H         1 UNK         0.0781 
    110 H110      -75.7429   26.8501  -69.1012 H         1 UNK         0.0836 
    111 H111      -77.3921   26.2953  -69.2300 H         1 UNK         0.0836 
    112 H112      -78.5597   24.3065  -74.5677 H         1 UNK         0.3022 
    113 H113      -78.9108   20.7877  -75.1471 H         1 UNK         0.0747 
    114 H114      -81.2822   21.3081  -74.7027 H         1 UNK         0.0793 
    115 H115      -80.3988   21.3341  -73.1846 H         1 UNK         0.0793 
    116 H116      -80.8490   22.8467  -73.9623 H         1 UNK         0.0793 
    117 H117      -80.2651   22.9446  -76.3629 H         1 UNK         0.3047 
    118 H118      -77.9706   23.6911  -78.9474 H         1 UNK         0.0822 
    119 H119      -79.8613   22.9498  -80.3769 H         1 UNK         0.0807 
    120 H120      -80.5594   22.0543  -79.0284 H         1 UNK         0.0807 
    121 H121      -79.0085   21.5740  -79.6961 H         1 UNK         0.0807 
    122 H122      -79.1728   25.4460  -78.4848 H         1 UNK         0.2946 
    123 H123      -80.5311   26.8762  -77.6473 H         1 UNK         0.1144 
    124 H124      -83.3762   25.8934  -78.2166 H         1 UNK         0.0793 
    125 H125      -82.2028   26.3607  -79.4392 H         1 UNK         0.0793 
    126 H126      -82.8106   27.5619  -78.3130 H         1 UNK         0.0793 
    127 H127      -82.7106   26.8405  -75.9668 H         1 UNK         0.2896 
@<TRIPOS>BOND
     1    1    2 1    
     2    1   67 1    
     3    1   68 1    
     4    1   69 1    
     5    2    3 2    
     6    2    4 am   BACKBONE|DICT|INTERRES
     7    4    5 1    
     8    4   70 1    
     9    5    6 1    
    10    5   65 1    
    11    5   71 1    
    12    6    7 1    
    13    6   72 1    
    14    6   73 1    
    15    7    8 1    
    16    8    9 1    
    17    8   74 1    
    18    8   75 1    
    19    9   10 ar   
    20    9   14 ar   
    21   10   11 ar   
    22   10   76 1    
    23   11   12 ar   
    24   11   48 1    
    25   12   13 ar   
    26   12   77 1    
    27   13   14 ar   
    28   13   15 1    
    29   14   78 1    
    30   15   16 1    
    31   15   79 1    
    32   15   80 1    
    33   16   17 1    
    34   17   18 1    
    35   17   81 1    
    36   17   82 1    
    37   18   19 1    
    38   18   22 1    
    39   18   83 1    
    40   19   20 am   BACKBONE|DICT|INTERRES
    41   19   21 2    
    42   20   84 1    
    43   20   85 1    
    44   22   23 am   BACKBONE|DICT|INTERRES
    45   22   86 1    
    46   23   24 2    
    47   23   25 1    
    48   25   26 1    
    49   25   27 1    
    50   25   87 1    
    51   26   88 1    
    52   26   89 1    
    53   26   90 1    
    54   27   28 am   BACKBONE|DICT|INTERRES
    55   27   91 1    
    56   28   29 2    
    57   28   30 1    
    58   30   31 1    
    59   30   32 1    
    60   30   92 1    
    61   31   93 1    
    62   31   94 1    
    63   31   95 1    
    64   32   33 am   BACKBONE|DICT|INTERRES
    65   32   96 1    
    66   33   34 2    
    67   33   35 1    
    68   35   36 1    
    69   35   37 1    
    70   35   97 1    
    71   36   98 1    
    72   36   99 1    
    73   36  100 1    
    74   37   38 am   BACKBONE|DICT|INTERRES
    75   37  101 1    
    76   38   39 2    
    77   38   40 1    
    78   40   41 1    
    79   40   42 1    
    80   40  102 1    
    81   41  103 1    
    82   41  104 1    
    83   41  105 1    
    84   42   43 am   BACKBONE|DICT|INTERRES
    85   42  106 1    
    86   43   44 2    
    87   43   45 1    
    88   45   46 1    
    89   45   49 1    
    90   45  107 1    
    91   46   47 1    
    92   46  108 1    
    93   46  109 1    
    94   47   48 1    
    95   48  110 1    
    96   48  111 1    
    97   49   50 am   BACKBONE|DICT|INTERRES
    98   49  112 1    
    99   50   51 2    
   100   50   52 1    
   101   52   53 1    
   102   52   54 1    
   103   52  113 1    
   104   53  114 1    
   105   53  115 1    
   106   53  116 1    
   107   54   55 am   BACKBONE|DICT|INTERRES
   108   54  117 1    
   109   55   56 2    
   110   55   57 1    
   111   57   58 1    
   112   57   59 1    
   113   57  118 1    
   114   58  119 1    
   115   58  120 1    
   116   58  121 1    
   117   59   60 am   BACKBONE|DICT|INTERRES
   118   59  122 1    
   119   60   61 2    
   120   60   62 1    
   121   62   63 1    
   122   62   64 1    
   123   62  123 1    
   124   63  124 1    
   125   63  125 1    
   126   63  126 1    
   127   64   65 am   BACKBONE|DICT|INTERRES
   128   64  127 1    
   129   65   66 2    
@<TRIPOS>SUBSTRUCTURE
     1 UNK         1 GROUP             0       ****    0 ROOT    
