@<TRIPOS>MOLECULE
3R135
127   129    1
SMALL
USER_CHARGES


@<TRIPOS>ATOM
      1 CA        -83.0667   29.4775  -69.9930 C.3       0 UNK        -0.1998 
      2 C         -82.3622   28.8339  -71.1782 C.2       0 UNK         0.4909 
      3 O         -82.2272   29.4663  -72.2265 O.2       0 UNK        -0.5240 
      4 N         -81.9059   27.5861  -71.0157 N.am      1 UNK        -0.4739 
      5 CA        -81.2369   26.7977  -72.0564 C.3       1 UNK         0.0864 
      6 C6        -80.4579   25.5928  -71.4597 C.3       11 UNK        -0.0881 
      7 S7        -79.2603   26.0273  -70.1474 S.3       11 UNK        -0.2682 
      8 C8        -77.6473   25.8824  -70.9881 C.3       11 UNK         0.0289 
      9 C9        -77.1814   27.2294  -71.5173 C.ar      11 UNK        -0.0687 
     10 C10       -77.6970   27.7279  -72.7142 C.ar      11 UNK        -0.0823 
     11 C11       -77.3256   28.9946  -73.1859 C.ar      11 UNK        -0.0830 
     12 C12       -76.3860   29.7356  -72.4619 C.ar      11 UNK        -0.1021 
     13 C13       -75.8425   29.2379  -71.2740 C.ar      11 UNK        -0.0753 
     14 C14       -76.2512   27.9877  -70.8014 C.ar      11 UNK        -0.0933 
     15 C15       -74.8317   30.0569  -70.4870 C.3       11 UNK         0.0166 
     16 S16       -73.1319   29.5766  -70.9211 S.3       11 UNK        -0.2615 
     17 C17       -72.4227   31.1551  -71.5010 C.3       11 UNK        -0.0865 
     18 CA        -72.7058   31.4542  -72.9966 C.3       10 UNK         0.0862 
     19 C         -72.0895   32.8259  -73.3886 C.2       10 UNK         0.5551 
     20 N         -72.8653   33.8987  -73.3148 N.am      10 UNK        -0.7319 
     21 O         -70.9064   32.9296  -73.7079 O.2       10 UNK        -0.5018 
     22 N         -72.2652   30.3508  -73.8630 N.am      10 UNK        -0.4509 
     23 C         -72.4203   30.2760  -75.1898 C.2       10 UNK         0.4899 
     24 O         -72.9934   31.1321  -75.8643 O.2       10 UNK        -0.4839 
     25 CA        -71.8703   29.0212  -75.8917 C.3       9 UNK         0.0222 
     26 CB        -70.3411   29.0938  -76.0722 C.3       9 UNK        -0.1966 
     27 N         -72.2994   27.7586  -75.2738 N.am      9 UNK        -0.4218 
     28 C         -71.9521   27.2413  -74.0853 C.2       9 UNK         0.5020 
     29 O         -71.1403   27.7631  -73.3195 O.2       9 UNK        -0.5274 
     30 CA        -72.6394   25.9328  -73.6601 C.3       8 UNK         0.0270 
     31 CB        -73.9325   26.2338  -72.8858 C.3       8 UNK        -0.1976 
     32 N         -72.9451   25.0329  -74.7739 N.am      8 UNK        -0.4313 
     33 C         -72.0316   24.3516  -75.4799 C.2       8 UNK         0.5041 
     34 O         -70.8166   24.4401  -75.2993 O.2       8 UNK        -0.5577 
     35 CA        -72.5635   23.4008  -76.5624 C.3       7 UNK         0.0284 
     36 CB        -73.1002   22.1037  -75.9335 C.3       7 UNK        -0.1958 
     37 N         -73.6190   24.0345  -77.3512 N.am      7 UNK        -0.4454 
     38 C         -73.4101   24.7398  -78.4710 C.2       7 UNK         0.5089 
     39 O         -72.3074   24.8746  -79.0021 O.2       7 UNK        -0.5125 
     40 CA        -74.6371   25.4168  -79.1115 C.3       6 UNK         0.0408 
     41 CB        -75.2272   24.5234  -80.2135 C.3       6 UNK        -0.1791 
     42 N         -75.6881   25.7558  -78.1473 N.am      6 UNK        -0.4762 
     43 C         -75.5557   26.6758  -77.1780 C.2       6 UNK         0.5007 
     44 O         -74.5388   27.3482  -77.0158 O.2       6 UNK        -0.5032 
     45 CA        -76.7280   26.8462  -76.1893 C.3       5 UNK         0.0783 
     46 C46       -77.6575   27.9759  -76.6953 C.3       11 UNK        -0.0857 
     47 S47       -78.9150   28.4996  -75.4881 S.3       11 UNK        -0.2512 
     48 C48       -77.9586   29.6336  -74.4234 C.3       11 UNK         0.0225 
     49 N         -77.4364   25.5832  -75.9273 N.am      5 UNK        -0.4615 
     50 C         -76.8442   24.4658  -75.4698 C.2       4 UNK         0.5053 
     51 O         -75.6624   24.4259  -75.1281 O.2       4 UNK        -0.5105 
     52 CA        -77.6501   23.1534  -75.4335 C.3       4 UNK         0.0263 
     53 CB        -78.0292   22.8021  -73.9867 C.3       4 UNK        -0.1981 
     54 N         -78.8574   23.1465  -76.2609 N.am      4 UNK        -0.4224 
     55 C         -78.9224   23.3571  -77.5848 C.2       3 UNK         0.4895 
     56 O         -77.9341   23.5054  -78.3047 O.2       3 UNK        -0.5091 
     57 CA        -80.3349   23.4948  -78.1927 C.3       3 UNK         0.0250 
     58 CB        -80.7633   22.1769  -78.8570 C.3       3 UNK        -0.1996 
     59 N         -81.3662   23.9124  -77.2277 N.am      3 UNK        -0.4254 
     60 C         -81.3230   25.0381  -76.4979 C.2       2 UNK         0.5004 
     61 O         -80.4184   25.8668  -76.6086 O.2       2 UNK        -0.5226 
     62 CA        -82.3875   25.2404  -75.4051 C.3       2 UNK         0.0269 
     63 CB        -83.0869   23.9216  -74.9894 C.3       2 UNK        -0.1926 
     64 N         -81.7011   25.8628  -74.2704 N.am      2 UNK        -0.4687 
     65 C         -82.2382   26.2981  -73.1248 C.2       1 UNK         0.5165 
     66 O         -83.4473   26.2645  -72.8792 O.2       1 UNK        -0.5079 
     67 H67       -83.0994   28.8140  -69.1289 H         1 UNK         0.0900 
     68 H68       -84.0908   29.7361  -70.2610 H         1 UNK         0.0900 
     69 H69       -82.5495   30.3906  -69.6997 H         1 UNK         0.0900 
     70 H70       -82.0502   27.1111  -70.1364 H         1 UNK         0.2959 
     71 H71       -80.5324   27.4611  -72.5597 H         1 UNK         0.1079 
     72 H72       -81.1580   24.8752  -71.0268 H         1 UNK         0.0837 
     73 H73       -79.9361   25.0491  -72.2470 H         1 UNK         0.0837 
     74 H74       -76.9203   25.4934  -70.2735 H         1 UNK         0.0685 
     75 H75       -77.6898   25.1514  -71.7962 H         1 UNK         0.0685 
     76 H76       -78.4105   27.1255  -73.2534 H         1 UNK         0.1434 
     77 H77       -76.0903   30.7142  -72.8142 H         1 UNK         0.1329 
     78 H78       -75.8444   27.6070  -69.8746 H         1 UNK         0.1335 
     79 H79       -74.9915   31.1209  -70.6670 H         1 UNK         0.0680 
     80 H80       -74.9802   29.9050  -69.4169 H         1 UNK         0.0680 
     81 H81       -71.3455   31.1130  -71.3273 H         1 UNK         0.1032 
     82 H82       -72.7913   31.9637  -70.8666 H         1 UNK         0.1032 
     83 H83       -73.7872   31.5267  -73.1243 H         1 UNK         0.0461 
     84 H84       -72.4777   34.7997  -73.5481 H         1 UNK         0.3453 
     85 H85       -73.8336   33.8266  -73.0440 H         1 UNK         0.3453 
     86 H86       -71.7941   29.5772  -73.4027 H         1 UNK         0.2984 
     87 H87       -72.3072   29.0086  -76.8915 H         1 UNK         0.0554 
     88 H88       -69.9650   28.2267  -76.6151 H         1 UNK         0.0847 
     89 H89       -69.8149   29.1470  -75.1190 H         1 UNK         0.0847 
     90 H90       -70.0616   29.9807  -76.6422 H         1 UNK         0.0847 
     91 H91       -73.0274   27.2820  -75.7993 H         1 UNK         0.3141 
     92 H92       -71.9579   25.4079  -72.9874 H         1 UNK         0.0743 
     93 H93       -74.6454   26.7976  -73.4880 H         1 UNK         0.0784 
     94 H94       -74.4246   25.3191  -72.5547 H         1 UNK         0.0784 
     95 H95       -73.7219   26.8264  -71.9954 H         1 UNK         0.0784 
     96 H96       -73.9326   24.8553  -74.9544 H         1 UNK         0.3213 
     97 H97       -71.7286   23.1344  -77.2148 H         1 UNK         0.0855 
     98 H98       -73.9412   22.2893  -75.2643 H         1 UNK         0.0814 
     99 H99       -72.3247   21.6052  -75.3504 H         1 UNK         0.0814 
    100 H100      -73.4309   21.4012  -76.6986 H         1 UNK         0.0814 
    101 H101      -74.5519   24.0186  -76.9601 H         1 UNK         0.3105 
    102 H102      -74.2959   26.3455  -79.5737 H         1 UNK         0.0547 
    103 H103      -74.4775   24.2913  -80.9711 H         1 UNK         0.0837 
    104 H104      -75.5903   23.5757  -79.8136 H         1 UNK         0.0837 
    105 H105      -76.0586   25.0131  -80.7206 H         1 UNK         0.0837 
    106 H106      -76.5433   25.2120  -78.1960 H         1 UNK         0.3020 
    107 H107      -76.2854   27.1663  -75.2446 H         1 UNK         0.1245 
    108 H108      -77.0827   28.8582  -76.9853 H         1 UNK         0.0781 
    109 H109      -78.1807   27.6534  -77.5978 H         1 UNK         0.0781 
    110 H110      -77.1925   30.1364  -75.0155 H         1 UNK         0.0836 
    111 H111      -78.6379   30.4155  -74.0812 H         1 UNK         0.0836 
    112 H112      -78.4166   25.5621  -76.1905 H         1 UNK         0.3022 
    113 H113      -76.9921   22.3699  -75.8147 H         1 UNK         0.0747 
    114 H114      -78.4820   21.8124  -73.9240 H         1 UNK         0.0793 
    115 H115      -77.1496   22.7938  -73.3409 H         1 UNK         0.0793 
    116 H116      -78.7336   23.5209  -73.5700 H         1 UNK         0.0793 
    117 H117      -79.7310   23.0280  -75.7706 H         1 UNK         0.3047 
    118 H118      -80.2765   24.2660  -78.9637 H         1 UNK         0.0822 
    119 H119      -81.7155   22.2847  -79.3769 H         1 UNK         0.0807 
    120 H120      -80.8658   21.3713  -78.1288 H         1 UNK         0.0807 
    121 H121      -80.0281   21.8558  -79.5966 H         1 UNK         0.0807 
    122 H122      -82.1317   23.2709  -77.0777 H         1 UNK         0.2946 
    123 H123      -83.1301   25.9411  -75.7916 H         1 UNK         0.1144 
    124 H124      -83.6201   23.4700  -75.8267 H         1 UNK         0.0793 
    125 H125      -83.8342   24.0849  -74.2138 H         1 UNK         0.0793 
    126 H126      -82.3755   23.1878  -74.6084 H         1 UNK         0.0793 
    127 H127      -80.7145   26.0107  -74.4432 H         1 UNK         0.2896 
@<TRIPOS>BOND
     1    1    2 1    
     2    1   67 1    
     3    1   68 1    
     4    1   69 1    
     5    2    3 2    
     6    2    4 am   BACKBONE|DICT|INTERRES
     7    4    5 1    
     8    4   70 1    
     9    5    6 1    
    10    5   65 1    
    11    5   71 1    
    12    6    7 1    
    13    6   72 1    
    14    6   73 1    
    15    7    8 1    
    16    8    9 1    
    17    8   74 1    
    18    8   75 1    
    19    9   10 ar   
    20    9   14 ar   
    21   10   11 ar   
    22   10   76 1    
    23   11   12 ar   
    24   11   48 1    
    25   12   13 ar   
    26   12   77 1    
    27   13   14 ar   
    28   13   15 1    
    29   14   78 1    
    30   15   16 1    
    31   15   79 1    
    32   15   80 1    
    33   16   17 1    
    34   17   18 1    
    35   17   81 1    
    36   17   82 1    
    37   18   19 1    
    38   18   22 1    
    39   18   83 1    
    40   19   20 am   BACKBONE|DICT|INTERRES
    41   19   21 2    
    42   20   84 1    
    43   20   85 1    
    44   22   23 am   BACKBONE|DICT|INTERRES
    45   22   86 1    
    46   23   24 2    
    47   23   25 1    
    48   25   26 1    
    49   25   27 1    
    50   25   87 1    
    51   26   88 1    
    52   26   89 1    
    53   26   90 1    
    54   27   28 am   BACKBONE|DICT|INTERRES
    55   27   91 1    
    56   28   29 2    
    57   28   30 1    
    58   30   31 1    
    59   30   32 1    
    60   30   92 1    
    61   31   93 1    
    62   31   94 1    
    63   31   95 1    
    64   32   33 am   BACKBONE|DICT|INTERRES
    65   32   96 1    
    66   33   34 2    
    67   33   35 1    
    68   35   36 1    
    69   35   37 1    
    70   35   97 1    
    71   36   98 1    
    72   36   99 1    
    73   36  100 1    
    74   37   38 am   BACKBONE|DICT|INTERRES
    75   37  101 1    
    76   38   39 2    
    77   38   40 1    
    78   40   41 1    
    79   40   42 1    
    80   40  102 1    
    81   41  103 1    
    82   41  104 1    
    83   41  105 1    
    84   42   43 am   BACKBONE|DICT|INTERRES
    85   42  106 1    
    86   43   44 2    
    87   43   45 1    
    88   45   46 1    
    89   45   49 1    
    90   45  107 1    
    91   46   47 1    
    92   46  108 1    
    93   46  109 1    
    94   47   48 1    
    95   48  110 1    
    96   48  111 1    
    97   49   50 am   BACKBONE|DICT|INTERRES
    98   49  112 1    
    99   50   51 2    
   100   50   52 1    
   101   52   53 1    
   102   52   54 1    
   103   52  113 1    
   104   53  114 1    
   105   53  115 1    
   106   53  116 1    
   107   54   55 am   BACKBONE|DICT|INTERRES
   108   54  117 1    
   109   55   56 2    
   110   55   57 1    
   111   57   58 1    
   112   57   59 1    
   113   57  118 1    
   114   58  119 1    
   115   58  120 1    
   116   58  121 1    
   117   59   60 am   BACKBONE|DICT|INTERRES
   118   59  122 1    
   119   60   61 2    
   120   60   62 1    
   121   62   63 1    
   122   62   64 1    
   123   62  123 1    
   124   63  124 1    
   125   63  125 1    
   126   63  126 1    
   127   64   65 am   BACKBONE|DICT|INTERRES
   128   64  127 1    
   129   65   66 2    
@<TRIPOS>SUBSTRUCTURE
     1 UNK         1 GROUP             0       ****    0 ROOT    
