@<TRIPOS>MOLECULE
3R135
127   129    1
SMALL
USER_CHARGES


@<TRIPOS>ATOM
      1 CA        -80.3718   28.3469  -70.1661 C.3       0 UNK        -0.1998 
      2 C         -81.2700   28.2611  -71.3900 C.2       0 UNK         0.4909 
      3 O         -82.4600   27.9749  -71.2557 O.2       0 UNK        -0.5240 
      4 N         -80.7150   28.5174  -72.5823 N.am      1 UNK        -0.4739 
      5 CA        -81.4498   28.5390  -73.8539 C.3       1 UNK         0.0864 
      6 C6        -80.7257   29.4074  -74.9166 C.3       11 UNK        -0.0881 
      7 S7        -79.2024   28.6746  -75.6121 S.3       11 UNK        -0.2682 
      8 C8        -77.8897   29.7782  -74.9931 C.3       11 UNK         0.0289 
      9 C9        -77.4782   29.5305  -73.5428 C.ar      11 UNK        -0.0687 
     10 C10       -77.4797   28.2436  -72.9877 C.ar      11 UNK        -0.0823 
     11 C11       -77.0748   28.0342  -71.6654 C.ar      11 UNK        -0.0830 
     12 C12       -76.6354   29.1215  -70.9064 C.ar      11 UNK        -0.1021 
     13 C13       -76.6140   30.4086  -71.4480 C.ar      11 UNK        -0.0753 
     14 C14       -77.0395   30.6078  -72.7646 C.ar      11 UNK        -0.0933 
     15 C15       -76.1566   31.5772  -70.5877 C.3       11 UNK         0.0166 
     16 S16       -74.3403   31.6842  -70.4888 S.3       11 UNK        -0.2615 
     17 C17       -73.9347   32.7716  -71.9011 C.3       11 UNK        -0.0865 
     18 CA        -72.8416   32.2581  -72.8844 C.3       10 UNK         0.0862 
     19 C         -71.4332   32.0236  -72.2533 C.2       10 UNK         0.5551 
     20 N         -70.6172   31.1156  -72.7760 N.am      10 UNK        -0.7319 
     21 O         -71.0484   32.7147  -71.3128 O.2       10 UNK        -0.5018 
     22 N         -73.3342   31.2370  -73.8241 N.am      10 UNK        -0.4509 
     23 C         -73.4757   29.9187  -73.6292 C.2       10 UNK         0.4899 
     24 O         -73.2098   29.3318  -72.5801 O.2       10 UNK        -0.4839 
     25 CA        -73.9867   29.1018  -74.8336 C.3       9 UNK         0.0222 
     26 CB        -74.1549   29.9176  -76.1377 C.3       9 UNK        -0.1966 
     27 N         -73.1702   27.9125  -75.0826 N.am      9 UNK        -0.4218 
     28 C         -71.8497   27.8546  -75.3170 C.2       9 UNK         0.5020 
     29 O         -71.1084   28.8384  -75.3580 O.2       9 UNK        -0.5274 
     30 CA        -71.2584   26.4575  -75.5651 C.3       8 UNK         0.0270 
     31 CB        -71.0227   25.7286  -74.2316 C.3       8 UNK        -0.1976 
     32 N         -72.1524   25.6569  -76.4048 N.am      8 UNK        -0.4313 
     33 C         -71.9683   25.3990  -77.7069 C.2       8 UNK         0.5041 
     34 O         -70.9558   25.7142  -78.3338 O.2       8 UNK        -0.5577 
     35 CA        -73.1121   24.6753  -78.4473 C.3       7 UNK         0.0284 
     36 CB        -72.9065   23.1527  -78.4011 C.3       7 UNK        -0.1958 
     37 N         -74.4384   24.9964  -77.9141 N.am      7 UNK        -0.4454 
     38 C         -75.0040   26.2114  -77.9454 C.2       7 UNK         0.5089 
     39 O         -74.5334   27.1628  -78.5682 O.2       7 UNK        -0.5125 
     40 CA        -76.2965   26.4182  -77.1294 C.3       6 UNK         0.0408 
     41 CB        -77.5052   26.4624  -78.0774 C.3       6 UNK        -0.1791 
     42 N         -76.5517   25.4250  -76.0766 N.am      6 UNK        -0.4762 
     43 C         -75.7299   25.0764  -75.0739 C.2       6 UNK         0.5007 
     44 O         -74.5957   25.5335  -74.9336 O.2       6 UNK        -0.5032 
     45 CA        -76.2281   23.9880  -74.1040 C.3       5 UNK         0.0783 
     46 C46       -77.0053   24.5778  -72.9066 C.3       11 UNK        -0.0857 
     47 S47       -75.9472   25.4855  -71.7320 S.3       11 UNK        -0.2512 
     48 C48       -77.1508   26.6526  -71.0274 C.3       11 UNK         0.0225 
     49 N         -77.0407   22.9942  -74.8061 N.am      5 UNK        -0.4615 
     50 C         -76.5563   21.9946  -75.5532 C.2       4 UNK         0.5053 
     51 O         -75.3548   21.7792  -75.7108 O.2       4 UNK        -0.5105 
     52 CA        -77.5883   21.0843  -76.2430 C.3       4 UNK         0.0263 
     53 CB        -77.9428   19.8939  -75.3376 C.3       4 UNK        -0.1981 
     54 N         -78.8153   21.7984  -76.6093 N.am      4 UNK        -0.4224 
     55 C         -78.8991   22.6755  -77.6195 C.2       3 UNK         0.4895 
     56 O         -77.9743   22.9112  -78.3969 O.2       3 UNK        -0.5091 
     57 CA        -80.2281   23.4373  -77.7799 C.3       3 UNK         0.0250 
     58 CB        -81.1655   22.6834  -78.7369 C.3       3 UNK        -0.1996 
     59 N         -80.9359   23.7161  -76.5221 N.am      3 UNK        -0.4254 
     60 C         -80.4436   24.4477  -75.5129 C.2       2 UNK         0.5004 
     61 O         -79.2895   24.8772  -75.4808 O.2       2 UNK        -0.5226 
     62 CA        -81.3653   24.6963  -74.3107 C.3       2 UNK         0.0269 
     63 CB        -81.0211   23.7322  -73.1638 C.3       2 UNK        -0.1926 
     64 N         -81.2164   26.0738  -73.8390 N.am      2 UNK        -0.4687 
     65 C         -81.8264   27.1347  -74.3875 C.2       1 UNK         0.5165 
     66 O         -82.6645   27.0400  -75.2864 O.2       1 UNK        -0.5079 
     67 H67       -79.4762   28.9334  -70.3657 H         1 UNK         0.0900 
     68 H68       -80.0729   27.3500  -69.8445 H         1 UNK         0.0900 
     69 H69       -80.9025   28.8245  -69.3429 H         1 UNK         0.0900 
     70 H70       -79.7316   28.7469  -72.6432 H         1 UNK         0.2959 
     71 H71       -82.4044   29.0321  -73.6552 H         1 UNK         0.1079 
     72 H72       -81.4025   29.5981  -75.7515 H         1 UNK         0.0837 
     73 H73       -80.5025   30.3908  -74.5002 H         1 UNK         0.0837 
     74 H74       -77.0133   29.6338  -75.6236 H         1 UNK         0.0685 
     75 H75       -78.2009   30.8142  -75.1360 H         1 UNK         0.0685 
     76 H76       -77.7985   27.4041  -73.5875 H         1 UNK         0.1434 
     77 H77       -76.3154   28.9720  -69.8841 H         1 UNK         0.1329 
     78 H78       -77.0212   31.6036  -73.1856 H         1 UNK         0.1335 
     79 H79       -76.5741   32.5178  -70.9498 H         1 UNK         0.0680 
     80 H80       -76.5480   31.4493  -69.5774 H         1 UNK         0.0680 
     81 H81       -73.6230   33.7317  -71.4863 H         1 UNK         0.1032 
     82 H82       -74.8425   32.9903  -72.4641 H         1 UNK         0.1032 
     83 H83       -72.6514   33.1044  -73.5457 H         1 UNK         0.0461 
     84 H84       -69.7021   30.9842  -72.3757 H         1 UNK         0.3453 
     85 H85       -70.9222   30.5358  -73.5449 H         1 UNK         0.3453 
     86 H86       -73.5471   31.5853  -74.7470 H         1 UNK         0.2984 
     87 H87       -74.9678   28.7252  -74.5463 H         1 UNK         0.0554 
     88 H88       -74.5619   29.2982  -76.9357 H         1 UNK         0.0847 
     89 H89       -73.2062   30.3214  -76.4937 H         1 UNK         0.0847 
     90 H90       -74.8474   30.7498  -76.0067 H         1 UNK         0.0847 
     91 H91       -73.6730   27.0307  -74.9959 H         1 UNK         0.3141 
     92 H92       -70.2916   26.5862  -76.0564 H         1 UNK         0.0743 
     93 H93       -71.9538   25.5662  -73.6864 H         1 UNK         0.0784 
     94 H94       -70.5545   24.7570  -74.3904 H         1 UNK         0.0784 
     95 H95       -70.3615   26.3059  -73.5839 H         1 UNK         0.0784 
     96 H96       -73.0373   25.3884  -75.9824 H         1 UNK         0.3213 
     97 H97       -73.0839   24.9959  -79.4910 H         1 UNK         0.0855 
     98 H98       -72.9544   22.7686  -77.3810 H         1 UNK         0.0814 
     99 H99       -71.9324   22.8780  -78.8083 H         1 UNK         0.0814 
    100 H100      -73.6615   22.6319  -78.9906 H         1 UNK         0.0814 
    101 H101      -74.9145   24.2702  -77.3979 H         1 UNK         0.3105 
    102 H102      -76.2160   27.3862  -76.6322 H         1 UNK         0.0547 
    103 H103      -77.4181   27.2920  -78.7801 H         1 UNK         0.0837 
    104 H104      -77.5888   25.5475  -78.6638 H         1 UNK         0.0837 
    105 H105      -78.4404   26.5953  -77.5348 H         1 UNK         0.0837 
    106 H106      -77.4955   25.0453  -76.0519 H         1 UNK         0.3020 
    107 H107      -75.3429   23.4799  -73.7130 H         1 UNK         0.1245 
    108 H108      -77.4735   23.7704  -72.3412 H         1 UNK         0.0781 
    109 H109      -77.8241   25.2083  -73.2529 H         1 UNK         0.0781 
    110 H110      -76.9627   26.7211  -69.9548 H         1 UNK         0.0836 
    111 H111      -78.1628   26.2575  -71.1230 H         1 UNK         0.0836 
    112 H112      -78.0387   23.1521  -74.7962 H         1 UNK         0.3022 
    113 H113      -77.1292   20.6947  -77.1544 H         1 UNK         0.0747 
    114 H114      -78.6202   19.2022  -75.8388 H         1 UNK         0.0793 
    115 H115      -77.0485   19.3301  -75.0679 H         1 UNK         0.0793 
    116 H116      -78.4166   20.2163  -74.4095 H         1 UNK         0.0793 
    117 H117      -79.6304   21.6460  -76.0334 H         1 UNK         0.3047 
    118 H118      -79.9878   24.4018  -78.2325 H         1 UNK         0.0822 
    119 H119      -82.0622   23.2639  -78.9546 H         1 UNK         0.0807 
    120 H120      -81.4775   21.7228  -78.3249 H         1 UNK         0.0807 
    121 H121      -80.6730   22.4845  -79.6900 H         1 UNK         0.0807 
    122 H122      -81.8863   23.3791  -76.4599 H         1 UNK         0.2946 
    123 H123      -82.4028   24.5295  -74.6098 H         1 UNK         0.1144 
    124 H124      -81.6796   23.8859  -72.3086 H         1 UNK         0.0793 
    125 H125      -79.9942   23.8580  -72.8202 H         1 UNK         0.0793 
    126 H126      -81.1363   22.6935  -73.4765 H         1 UNK         0.0793 
    127 H127      -80.5157   26.2444  -73.1345 H         1 UNK         0.2896 
@<TRIPOS>BOND
     1    1    2 1    
     2    1   67 1    
     3    1   68 1    
     4    1   69 1    
     5    2    3 2    
     6    2    4 am   BACKBONE|DICT|INTERRES
     7    4    5 1    
     8    4   70 1    
     9    5    6 1    
    10    5   65 1    
    11    5   71 1    
    12    6    7 1    
    13    6   72 1    
    14    6   73 1    
    15    7    8 1    
    16    8    9 1    
    17    8   74 1    
    18    8   75 1    
    19    9   10 ar   
    20    9   14 ar   
    21   10   11 ar   
    22   10   76 1    
    23   11   12 ar   
    24   11   48 1    
    25   12   13 ar   
    26   12   77 1    
    27   13   14 ar   
    28   13   15 1    
    29   14   78 1    
    30   15   16 1    
    31   15   79 1    
    32   15   80 1    
    33   16   17 1    
    34   17   18 1    
    35   17   81 1    
    36   17   82 1    
    37   18   19 1    
    38   18   22 1    
    39   18   83 1    
    40   19   20 am   BACKBONE|DICT|INTERRES
    41   19   21 2    
    42   20   84 1    
    43   20   85 1    
    44   22   23 am   BACKBONE|DICT|INTERRES
    45   22   86 1    
    46   23   24 2    
    47   23   25 1    
    48   25   26 1    
    49   25   27 1    
    50   25   87 1    
    51   26   88 1    
    52   26   89 1    
    53   26   90 1    
    54   27   28 am   BACKBONE|DICT|INTERRES
    55   27   91 1    
    56   28   29 2    
    57   28   30 1    
    58   30   31 1    
    59   30   32 1    
    60   30   92 1    
    61   31   93 1    
    62   31   94 1    
    63   31   95 1    
    64   32   33 am   BACKBONE|DICT|INTERRES
    65   32   96 1    
    66   33   34 2    
    67   33   35 1    
    68   35   36 1    
    69   35   37 1    
    70   35   97 1    
    71   36   98 1    
    72   36   99 1    
    73   36  100 1    
    74   37   38 am   BACKBONE|DICT|INTERRES
    75   37  101 1    
    76   38   39 2    
    77   38   40 1    
    78   40   41 1    
    79   40   42 1    
    80   40  102 1    
    81   41  103 1    
    82   41  104 1    
    83   41  105 1    
    84   42   43 am   BACKBONE|DICT|INTERRES
    85   42  106 1    
    86   43   44 2    
    87   43   45 1    
    88   45   46 1    
    89   45   49 1    
    90   45  107 1    
    91   46   47 1    
    92   46  108 1    
    93   46  109 1    
    94   47   48 1    
    95   48  110 1    
    96   48  111 1    
    97   49   50 am   BACKBONE|DICT|INTERRES
    98   49  112 1    
    99   50   51 2    
   100   50   52 1    
   101   52   53 1    
   102   52   54 1    
   103   52  113 1    
   104   53  114 1    
   105   53  115 1    
   106   53  116 1    
   107   54   55 am   BACKBONE|DICT|INTERRES
   108   54  117 1    
   109   55   56 2    
   110   55   57 1    
   111   57   58 1    
   112   57   59 1    
   113   57  118 1    
   114   58  119 1    
   115   58  120 1    
   116   58  121 1    
   117   59   60 am   BACKBONE|DICT|INTERRES
   118   59  122 1    
   119   60   61 2    
   120   60   62 1    
   121   62   63 1    
   122   62   64 1    
   123   62  123 1    
   124   63  124 1    
   125   63  125 1    
   126   63  126 1    
   127   64   65 am   BACKBONE|DICT|INTERRES
   128   64  127 1    
   129   65   66 2    
@<TRIPOS>SUBSTRUCTURE
     1 UNK         1 GROUP             0       ****    0 ROOT    
