@<TRIPOS>MOLECULE
3R135
127   129    1
SMALL
USER_CHARGES


@<TRIPOS>ATOM
      1 CA        -74.7549   24.1080  -70.7392 C.3       0 UNK        -0.1998 
      2 C         -76.2473   23.8572  -70.5976 C.2       0 UNK         0.4909 
      3 O         -76.6562   22.9951  -69.8189 O.2       0 UNK        -0.5240 
      4 N         -77.0611   24.6067  -71.3493 N.am      1 UNK        -0.4739 
      5 CA        -78.5150   24.4329  -71.4190 C.3       1 UNK         0.0864 
      6 C6        -79.2439   25.7397  -71.8230 C.3       11 UNK        -0.0881 
      7 S7        -79.1916   26.9959  -70.5033 S.3       11 UNK        -0.2682 
      8 C8        -77.7909   28.0417  -71.0326 C.3       11 UNK         0.0289 
      9 C9        -78.0209   28.9348  -72.2550 C.ar      11 UNK        -0.0687 
     10 C10       -79.2822   29.1363  -72.8329 C.ar      11 UNK        -0.0823 
     11 C11       -79.4426   29.9827  -73.9377 C.ar      11 UNK        -0.0830 
     12 C12       -78.3226   30.6438  -74.4548 C.ar      11 UNK        -0.1021 
     13 C13       -77.0612   30.4763  -73.8750 C.ar      11 UNK        -0.0753 
     14 C14       -76.9204   29.6167  -72.7836 C.ar      11 UNK        -0.0933 
     15 C15       -75.8687   31.2886  -74.3653 C.3       11 UNK         0.0166 
     16 S16       -74.6041   30.2801  -75.2058 S.3       11 UNK        -0.2615 
     17 C17       -73.3374   31.5567  -75.5350 C.3       11 UNK        -0.0865 
     18 CA        -71.9863   31.4082  -74.7777 C.3       10 UNK         0.0862 
     19 C         -72.1144   31.2717  -73.2310 C.2       10 UNK         0.5551 
     20 N         -71.4071   30.3559  -72.5781 N.am      10 UNK        -0.7319 
     21 O         -72.8449   32.0355  -72.6050 O.2       10 UNK        -0.5018 
     22 N         -71.0963   30.4129  -75.4033 N.am      10 UNK        -0.4509 
     23 C         -69.7789   30.6029  -75.5793 C.2       10 UNK         0.4899 
     24 O         -69.2007   31.6552  -75.3001 O.2       10 UNK        -0.4839 
     25 CA        -68.9632   29.4303  -76.1656 C.3       9 UNK         0.0222 
     26 CB        -67.4419   29.6035  -75.9651 C.3       9 UNK        -0.1966 
     27 N         -69.3871   28.1107  -75.6864 N.am      9 UNK        -0.4218 
     28 C         -69.4782   27.6960  -74.4149 C.2       9 UNK         0.5020 
     29 O         -69.2346   28.3961  -73.4295 O.2       9 UNK        -0.5274 
     30 CA        -69.9847   26.2568  -74.2162 C.3       8 UNK         0.0270 
     31 CB        -69.0621   25.4687  -73.2701 C.3       8 UNK        -0.1976 
     32 N         -71.3548   26.2217  -73.6980 N.am      8 UNK        -0.4313 
     33 C         -72.4146   26.8128  -74.2645 C.2       8 UNK         0.5041 
     34 O         -72.3631   27.4742  -75.3083 O.2       8 UNK        -0.5577 
     35 CA        -73.7551   26.6444  -73.5389 C.3       7 UNK         0.0284 
     36 CB        -73.7969   27.5015  -72.2630 C.3       7 UNK        -0.1958 
     37 N         -74.7922   27.0872  -74.4566 N.am      7 UNK        -0.4454 
     38 C         -75.9831   26.5329  -74.6708 C.2       7 UNK         0.5089 
     39 O         -76.4599   25.6094  -74.0045 O.2       7 UNK        -0.5125 
     40 CA        -76.7415   27.0980  -75.8744 C.3       6 UNK         0.0408 
     41 CB        -76.1623   26.5583  -77.1956 C.3       6 UNK        -0.1791 
     42 N         -78.1572   26.7664  -75.7824 N.am      6 UNK        -0.4762 
     43 C         -79.1354   27.4999  -76.3252 C.2       6 UNK         0.5007 
     44 O         -78.9363   28.5040  -77.0126 O.2       6 UNK        -0.5032 
     45 CA        -80.5649   26.9718  -76.1126 C.3       5 UNK         0.0783 
     46 C46       -81.6587   28.0730  -76.1706 C.3       11 UNK        -0.0857 
     47 S47       -81.9613   28.8322  -74.5399 S.3       11 UNK        -0.2512 
     48 C48       -80.8228   30.2633  -74.5368 C.3       11 UNK         0.0225 
     49 N         -80.7936   25.8482  -77.0233 N.am      5 UNK        -0.4615 
     50 C         -80.9233   25.8861  -78.3580 C.2       4 UNK         0.5053 
     51 O         -81.0326   26.9270  -79.0061 O.2       4 UNK        -0.5105 
     52 CA        -80.9032   24.5431  -79.1198 C.3       4 UNK         0.0263 
     53 CB        -79.6648   24.4639  -80.0298 C.3       4 UNK        -0.1981 
     54 N         -80.9102   23.3678  -78.2446 N.am      4 UNK        -0.4224 
     55 C         -81.9886   22.8807  -77.6167 C.2       3 UNK         0.4895 
     56 O         -83.1294   23.3140  -77.7806 O.2       3 UNK        -0.5091 
     57 CA        -81.7544   21.7344  -76.6123 C.3       3 UNK         0.0250 
     58 CB        -82.0505   20.3778  -77.2723 C.3       3 UNK        -0.1996 
     59 N         -80.4133   21.6952  -76.0075 N.am      3 UNK        -0.4254 
     60 C         -79.8556   22.6832  -75.2929 C.2       2 UNK         0.5004 
     61 O         -80.3723   23.7928  -75.1422 O.2       2 UNK        -0.5226 
     62 CA        -78.4653   22.4062  -74.6927 C.3       2 UNK         0.0269 
     63 CB        -77.3762   22.6133  -75.7579 C.3       2 UNK        -0.1926 
     64 N         -78.1783   23.2877  -73.5582 N.am      2 UNK        -0.4687 
     65 C         -78.8612   23.3022  -72.4031 C.2       1 UNK         0.5165 
     66 O         -79.7240   22.4748  -72.1035 O.2       1 UNK        -0.5079 
     67 H67       -74.3996   23.7428  -71.7022 H         1 UNK         0.0900 
     68 H68       -74.2011   23.5924  -69.9550 H         1 UNK         0.0900 
     69 H69       -74.5332   25.1710  -70.6610 H         1 UNK         0.0900 
     70 H70       -76.6675   25.2363  -72.0408 H         1 UNK         0.2959 
     71 H71       -78.8859   24.1274  -70.4375 H         1 UNK         0.1079 
     72 H72       -78.8335   26.1518  -72.7463 H         1 UNK         0.0837 
     73 H73       -80.2984   25.5421  -72.0274 H         1 UNK         0.0837 
     74 H74       -77.5149   28.6805  -70.1928 H         1 UNK         0.0685 
     75 H75       -76.9367   27.3929  -71.2175 H         1 UNK         0.0685 
     76 H76       -80.1517   28.6517  -72.4145 H         1 UNK         0.1434 
     77 H77       -78.4392   31.3180  -75.2924 H         1 UNK         0.1329 
     78 H78       -75.9468   29.4999  -72.3288 H         1 UNK         0.1335 
     79 H79       -76.1998   32.0754  -75.0449 H         1 UNK         0.0680 
     80 H80       -75.4153   31.7933  -73.5112 H         1 UNK         0.0680 
     81 H81       -73.7606   32.5369  -75.3090 H         1 UNK         0.1032 
     82 H82       -73.1530   31.5770  -76.6101 H         1 UNK         0.1032 
     83 H83       -71.5117   32.3836  -74.8987 H         1 UNK         0.0461 
     84 H84       -71.4902   30.2988  -71.5763 H         1 UNK         0.3453 
     85 H85       -70.7518   29.7536  -73.0623 H         1 UNK         0.3453 
     86 H86       -71.5028   29.5030  -75.5933 H         1 UNK         0.2984 
     87 H87       -69.1564   29.4398  -77.2391 H         1 UNK         0.0554 
     88 H88       -67.0852   30.5234  -76.4303 H         1 UNK         0.0847 
     89 H89       -66.8853   28.7810  -76.4140 H         1 UNK         0.0847 
     90 H90       -67.1777   29.6494  -74.9079 H         1 UNK         0.0847 
     91 H91       -69.6911   27.4691  -76.4064 H         1 UNK         0.3141 
     92 H92       -69.9860   25.7475  -75.1822 H         1 UNK         0.0743 
     93 H93       -69.0555   25.8924  -72.2648 H         1 UNK         0.0784 
     94 H94       -69.3677   24.4250  -73.1932 H         1 UNK         0.0784 
     95 H95       -68.0333   25.4777  -73.6330 H         1 UNK         0.0784 
     96 H96       -71.4868   25.7276  -72.8276 H         1 UNK         0.3213 
     97 H97       -73.8939   25.5890  -73.2975 H         1 UNK         0.0855 
     98 H98       -73.0086   27.2178  -71.5650 H         1 UNK         0.0814 
     99 H99       -74.7436   27.3871  -71.7409 H         1 UNK         0.0814 
    100 H100      -73.6663   28.5603  -72.4890 H         1 UNK         0.0814 
    101 H101      -74.4669   27.8073  -75.0935 H         1 UNK         0.3105 
    102 H102      -76.6318   28.1840  -75.8510 H         1 UNK         0.0547 
    103 H103      -75.1058   26.8111  -77.2950 H         1 UNK         0.0837 
    104 H104      -76.2456   25.4734  -77.2601 H         1 UNK         0.0837 
    105 H105      -76.6752   26.9847  -78.0578 H         1 UNK         0.0837 
    106 H106      -78.3711   25.9566  -75.2151 H         1 UNK         0.3020 
    107 H107      -80.5954   26.5297  -75.1147 H         1 UNK         0.1245 
    108 H108      -82.6074   27.6257  -76.4710 H         1 UNK         0.0781 
    109 H109      -81.4547   28.8358  -76.9238 H         1 UNK         0.0781 
    110 H110      -81.2833   31.0601  -73.9516 H         1 UNK         0.0836 
    111 H111      -80.7289   30.6501  -75.5527 H         1 UNK         0.0836 
    112 H112      -80.7207   24.9403  -76.5707 H         1 UNK         0.3022 
    113 H113      -81.7942   24.5145  -79.7509 H         1 UNK         0.0747 
    114 H114      -79.6592   23.5439  -80.6149 H         1 UNK         0.0793 
    115 H115      -79.6447   25.2939  -80.7375 H         1 UNK         0.0793 
    116 H116      -78.7383   24.5045  -79.4553 H         1 UNK         0.0793 
    117 H117      -80.0165   22.9392  -78.0532 H         1 UNK         0.3047 
    118 H118      -82.4679   21.8791  -75.7982 H         1 UNK         0.0822 
    119 H119      -82.0056   19.5642  -76.5479 H         1 UNK         0.0807 
    120 H120      -81.3442   20.1556  -78.0734 H         1 UNK         0.0807 
    121 H121      -83.0510   20.3643  -77.7074 H         1 UNK         0.0807 
    122 H122      -79.9091   20.8247  -76.1024 H         1 UNK         0.2946 
    123 H123      -78.4364   21.3738  -74.3375 H         1 UNK         0.1144 
    124 H124      -77.5124   21.9353  -76.6014 H         1 UNK         0.0793 
    125 H125      -76.3824   22.4248  -75.3509 H         1 UNK         0.0793 
    126 H126      -77.3876   23.6306  -76.1503 H         1 UNK         0.0793 
    127 H127      -77.4900   24.0188  -73.7128 H         1 UNK         0.2896 
@<TRIPOS>BOND
     1    1    2 1    
     2    1   67 1    
     3    1   68 1    
     4    1   69 1    
     5    2    3 2    
     6    2    4 am   BACKBONE|DICT|INTERRES
     7    4    5 1    
     8    4   70 1    
     9    5    6 1    
    10    5   65 1    
    11    5   71 1    
    12    6    7 1    
    13    6   72 1    
    14    6   73 1    
    15    7    8 1    
    16    8    9 1    
    17    8   74 1    
    18    8   75 1    
    19    9   10 ar   
    20    9   14 ar   
    21   10   11 ar   
    22   10   76 1    
    23   11   12 ar   
    24   11   48 1    
    25   12   13 ar   
    26   12   77 1    
    27   13   14 ar   
    28   13   15 1    
    29   14   78 1    
    30   15   16 1    
    31   15   79 1    
    32   15   80 1    
    33   16   17 1    
    34   17   18 1    
    35   17   81 1    
    36   17   82 1    
    37   18   19 1    
    38   18   22 1    
    39   18   83 1    
    40   19   20 am   BACKBONE|DICT|INTERRES
    41   19   21 2    
    42   20   84 1    
    43   20   85 1    
    44   22   23 am   BACKBONE|DICT|INTERRES
    45   22   86 1    
    46   23   24 2    
    47   23   25 1    
    48   25   26 1    
    49   25   27 1    
    50   25   87 1    
    51   26   88 1    
    52   26   89 1    
    53   26   90 1    
    54   27   28 am   BACKBONE|DICT|INTERRES
    55   27   91 1    
    56   28   29 2    
    57   28   30 1    
    58   30   31 1    
    59   30   32 1    
    60   30   92 1    
    61   31   93 1    
    62   31   94 1    
    63   31   95 1    
    64   32   33 am   BACKBONE|DICT|INTERRES
    65   32   96 1    
    66   33   34 2    
    67   33   35 1    
    68   35   36 1    
    69   35   37 1    
    70   35   97 1    
    71   36   98 1    
    72   36   99 1    
    73   36  100 1    
    74   37   38 am   BACKBONE|DICT|INTERRES
    75   37  101 1    
    76   38   39 2    
    77   38   40 1    
    78   40   41 1    
    79   40   42 1    
    80   40  102 1    
    81   41  103 1    
    82   41  104 1    
    83   41  105 1    
    84   42   43 am   BACKBONE|DICT|INTERRES
    85   42  106 1    
    86   43   44 2    
    87   43   45 1    
    88   45   46 1    
    89   45   49 1    
    90   45  107 1    
    91   46   47 1    
    92   46  108 1    
    93   46  109 1    
    94   47   48 1    
    95   48  110 1    
    96   48  111 1    
    97   49   50 am   BACKBONE|DICT|INTERRES
    98   49  112 1    
    99   50   51 2    
   100   50   52 1    
   101   52   53 1    
   102   52   54 1    
   103   52  113 1    
   104   53  114 1    
   105   53  115 1    
   106   53  116 1    
   107   54   55 am   BACKBONE|DICT|INTERRES
   108   54  117 1    
   109   55   56 2    
   110   55   57 1    
   111   57   58 1    
   112   57   59 1    
   113   57  118 1    
   114   58  119 1    
   115   58  120 1    
   116   58  121 1    
   117   59   60 am   BACKBONE|DICT|INTERRES
   118   59  122 1    
   119   60   61 2    
   120   60   62 1    
   121   62   63 1    
   122   62   64 1    
   123   62  123 1    
   124   63  124 1    
   125   63  125 1    
   126   63  126 1    
   127   64   65 am   BACKBONE|DICT|INTERRES
   128   64  127 1    
   129   65   66 2    
@<TRIPOS>SUBSTRUCTURE
     1 UNK         1 GROUP             0       ****    0 ROOT    
