@<TRIPOS>MOLECULE
3R135
127   129    1
SMALL
USER_CHARGES


@<TRIPOS>ATOM
      1 CA        -83.7974   25.9319  -72.0300 C.3       0 UNK        -0.1998 
      2 C         -82.9836   26.6924  -73.0660 C.2       0 UNK         0.4909 
      3 O         -81.7729   26.4901  -73.1457 O.2       0 UNK        -0.5240 
      4 N         -83.6525   27.5488  -73.8573 N.am      1 UNK        -0.4739 
      5 CA        -83.1168   28.4201  -74.9224 C.3       1 UNK         0.0864 
      6 C6        -82.5708   29.7996  -74.4253 C.3       11 UNK        -0.0881 
      7 S7        -81.4500   29.8059  -72.9796 S.3       11 UNK        -0.2682 
      8 C8        -79.8666   29.3803  -73.7595 C.3       11 UNK         0.0289 
      9 C9        -78.7614   29.2036  -72.7309 C.ar      11 UNK        -0.0687 
     10 C10       -78.6330   27.9931  -72.0430 C.ar      11 UNK        -0.0823 
     11 C11       -77.6167   27.8163  -71.0989 C.ar      11 UNK        -0.0830 
     12 C12       -76.7241   28.8615  -70.8456 C.ar      11 UNK        -0.1021 
     13 C13       -76.8419   30.0756  -71.5289 C.ar      11 UNK        -0.0753 
     14 C14       -77.8618   30.2412  -72.4713 C.ar      11 UNK        -0.0933 
     15 C15       -75.8814   31.2178  -71.2357 C.3       11 UNK         0.0166 
     16 S16       -74.5032   31.2599  -72.4204 S.3       11 UNK        -0.2615 
     17 C17       -73.5157   29.8258  -71.8703 C.3       11 UNK        -0.0865 
     18 CA        -72.1672   29.7188  -72.6302 C.3       10 UNK         0.0862 
     19 C         -71.2281   28.6340  -72.0248 C.2       10 UNK         0.5551 
     20 N         -70.4930   27.8669  -72.8227 N.am      10 UNK        -0.7319 
     21 O         -71.1470   28.4938  -70.8069 O.2       10 UNK        -0.5018 
     22 N         -72.3899   29.5276  -74.0696 N.am      10 UNK        -0.4509 
     23 C         -71.8267   30.2413  -75.0491 C.2       10 UNK         0.4899 
     24 O         -71.0747   31.1994  -74.8603 O.2       10 UNK        -0.4839 
     25 CA        -72.1552   29.7864  -76.4844 C.3       9 UNK         0.0222 
     26 CB        -71.2637   30.4583  -77.5503 C.3       9 UNK        -0.1966 
     27 N         -72.1375   28.3260  -76.6416 N.am      9 UNK        -0.4218 
     28 C         -71.1089   27.4951  -76.4023 C.2       9 UNK         0.5020 
     29 O         -70.0162   27.8758  -75.9791 O.2       9 UNK        -0.5274 
     30 CA        -71.3151   25.9832  -76.6316 C.3       8 UNK         0.0270 
     31 CB        -71.0047   25.1956  -75.3465 C.3       8 UNK        -0.1976 
     32 N         -72.6580   25.6234  -77.0918 N.am      8 UNK        -0.4313 
     33 C         -73.1310   25.7994  -78.3323 C.2       8 UNK         0.5041 
     34 O         -72.4550   26.2231  -79.2701 O.2       8 UNK        -0.5577 
     35 CA        -74.6267   25.5058  -78.5468 C.3       7 UNK         0.0284 
     36 CB        -74.8528   24.0174  -78.8551 C.3       7 UNK        -0.1958 
     37 N         -75.4593   25.9028  -77.4059 N.am      7 UNK        -0.4454 
     38 C         -75.5928   27.1569  -76.9471 C.2       7 UNK         0.5089 
     39 O         -75.0390   28.1345  -77.4488 O.2       7 UNK        -0.5125 
     40 CA        -76.4476   27.3368  -75.6829 C.3       6 UNK         0.0408 
     41 CB        -77.9458   27.2334  -76.0150 C.3       6 UNK        -0.1791 
     42 N         -76.0949   26.3477  -74.6636 N.am      6 UNK        -0.4762 
     43 C         -74.9404   26.3388  -73.9815 C.2       6 UNK         0.5007 
     44 O         -74.0633   27.1934  -74.1120 O.2       6 UNK        -0.5032 
     45 CA        -74.6958   25.1445  -73.0358 C.3       5 UNK         0.0783 
     46 C46       -75.2053   25.4224  -71.5962 C.3       11 UNK        -0.0857 
     47 S47       -76.9961   25.1202  -71.3742 S.3       11 UNK        -0.2512 
     48 C48       -77.5129   26.5117  -70.3235 C.3       11 UNK         0.0225 
     49 N         -75.2218   23.8839  -73.5728 N.am      5 UNK        -0.4615 
     50 C         -74.8009   23.2778  -74.6893 C.2       4 UNK         0.5053 
     51 O         -73.8607   23.6802  -75.3707 O.2       4 UNK        -0.5105 
     52 CA        -75.6045   22.0501  -75.1539 C.3       4 UNK         0.0263 
     53 CB        -75.1131   20.7811  -74.4402 C.3       4 UNK        -0.1981 
     54 N         -77.0527   22.1990  -74.9604 N.am      4 UNK        -0.4224 
     55 C         -77.7972   23.1540  -75.5345 C.2       3 UNK         0.4895 
     56 O         -77.3421   23.9994  -76.3110 O.2       3 UNK        -0.5091 
     57 CA        -79.2795   23.2060  -75.1434 C.3       3 UNK         0.0250 
     58 CB        -79.4376   23.6533  -73.6747 C.3       3 UNK        -0.1996 
     59 N         -79.9482   24.1539  -76.0307 N.am      3 UNK        -0.4254 
     60 C         -81.2635   24.3678  -76.1218 C.2       2 UNK         0.5004 
     61 O         -82.1173   23.7171  -75.5135 O.2       2 UNK        -0.5226 
     62 CA        -81.7081   25.5148  -77.0360 C.3       2 UNK         0.0269 
     63 CB        -82.5439   24.9945  -78.2177 C.3       2 UNK        -0.1926 
     64 N         -82.5176   26.4194  -76.2249 N.am      2 UNK        -0.4687 
     65 C         -82.2291   27.7024  -75.9724 C.2       1 UNK         0.5165 
     66 O         -81.3258   28.3141  -76.5457 O.2       1 UNK        -0.5079 
     67 H67       -83.7084   24.8592  -72.2001 H         1 UNK         0.0900 
     68 H68       -84.8543   26.1954  -72.0643 H         1 UNK         0.0900 
     69 H69       -83.4253   26.1505  -71.0295 H         1 UNK         0.0900 
     70 H70       -84.6504   27.6332  -73.7198 H         1 UNK         0.2959 
     71 H71       -83.9997   28.6693  -75.5138 H         1 UNK         0.1079 
     72 H72       -82.1071   30.3626  -75.2373 H         1 UNK         0.0837 
     73 H73       -83.4265   30.4087  -74.1308 H         1 UNK         0.0837 
     74 H74       -79.5977   30.1397  -74.4952 H         1 UNK         0.0685 
     75 H75       -79.9947   28.4470  -74.3019 H         1 UNK         0.0685 
     76 H76       -79.3315   27.1900  -72.2385 H         1 UNK         0.1434 
     77 H77       -75.9417   28.7352  -70.1098 H         1 UNK         0.1329 
     78 H78       -77.9557   31.1797  -73.0003 H         1 UNK         0.1335 
     79 H79       -76.4166   32.1672  -71.2873 H         1 UNK         0.0680 
     80 H80       -75.4919   31.1449  -70.2190 H         1 UNK         0.0680 
     81 H81       -73.3465   29.9268  -70.7967 H         1 UNK         0.1032 
     82 H82       -74.1007   28.9155  -72.0077 H         1 UNK         0.1032 
     83 H83       -71.6379   30.6594  -72.4694 H         1 UNK         0.0461 
     84 H84       -69.8822   27.1780  -72.4143 H         1 UNK         0.3453 
     85 H85       -70.5024   28.0050  -73.8243 H         1 UNK         0.3453 
     86 H86       -72.9792   28.7322  -74.3050 H         1 UNK         0.2984 
     87 H87       -73.1834   30.0989  -76.6715 H         1 UNK         0.0554 
     88 H88       -71.5383   30.1381  -78.5554 H         1 UNK         0.0847 
     89 H89       -70.2087   30.2262  -77.4005 H         1 UNK         0.0847 
     90 H90       -71.3656   31.5437  -77.5180 H         1 UNK         0.0847 
     91 H91       -73.0147   27.9242  -76.9542 H         1 UNK         0.3141 
     92 H92       -70.5994   25.6773  -77.3972 H         1 UNK         0.0743 
     93 H93       -69.9845   25.3781  -75.0066 H         1 UNK         0.0784 
     94 H94       -71.6748   25.4767  -74.5335 H         1 UNK         0.0784 
     95 H95       -71.1019   24.1215  -75.5056 H         1 UNK         0.0784 
     96 H96       -73.2625   25.1747  -76.4071 H         1 UNK         0.3213 
     97 H97       -74.9562   26.0878  -79.4100 H         1 UNK         0.0855 
     98 H98       -74.5327   23.3809  -78.0302 H         1 UNK         0.0814 
     99 H99       -74.2899   23.7132  -79.7385 H         1 UNK         0.0814 
    100 H100      -75.9044   23.8071  -79.0511 H         1 UNK         0.0814 
    101 H101      -75.9865   25.1660  -76.9423 H         1 UNK         0.3105 
    102 H102      -76.2565   28.3273  -75.2637 H         1 UNK         0.0547 
    103 H103      -78.1547   26.4640  -76.7574 H         1 UNK         0.0837 
    104 H104      -78.5371   26.9999  -75.1312 H         1 UNK         0.0837 
    105 H105      -78.3160   28.1747  -76.4226 H         1 UNK         0.0837 
    106 H106      -76.7367   25.5806  -74.5287 H         1 UNK         0.3020 
    107 H107      -73.6105   25.0333  -72.9782 H         1 UNK         0.1245 
    108 H108      -74.9509   26.4362  -71.2809 H         1 UNK         0.0781 
    109 H109      -74.6827   24.7643  -70.9005 H         1 UNK         0.0781 
    110 H110      -76.8260   26.6052  -69.4808 H         1 UNK         0.0836 
    111 H111      -78.4885   26.2794  -69.8942 H         1 UNK         0.0836 
    112 H112      -76.0073   23.4937  -73.0725 H         1 UNK         0.3022 
    113 H113      -75.4264   21.9283  -76.2243 H         1 UNK         0.0747 
    114 H114      -75.6081   19.8906  -74.8280 H         1 UNK         0.0793 
    115 H115      -74.0408   20.6427  -74.5868 H         1 UNK         0.0793 
    116 H116      -75.2920   20.8245  -73.3650 H         1 UNK         0.0793 
    117 H117      -77.4980   21.5405  -74.3370 H         1 UNK         0.3047 
    118 H118      -79.7140   22.2145  -75.2853 H         1 UNK         0.0822 
    119 H119      -78.8898   23.0036  -72.9915 H         1 UNK         0.0807 
    120 H120      -80.4806   23.6332  -73.3588 H         1 UNK         0.0807 
    121 H121      -79.0738   24.6708  -73.5263 H         1 UNK         0.0807 
    122 H122      -79.3010   24.6811  -76.6038 H         1 UNK         0.2946 
    123 H123      -80.8267   26.0266  -77.4296 H         1 UNK         0.1144 
    124 H124      -81.9636   24.3037  -78.8306 H         1 UNK         0.0793 
    125 H125      -82.8644   25.8119  -78.8639 H         1 UNK         0.0793 
    126 H126      -83.4362   24.4643  -77.8822 H         1 UNK         0.0793 
    127 H127      -83.2307   25.9732  -75.6638 H         1 UNK         0.2896 
@<TRIPOS>BOND
     1    1    2 1    
     2    1   67 1    
     3    1   68 1    
     4    1   69 1    
     5    2    3 2    
     6    2    4 am   BACKBONE|DICT|INTERRES
     7    4    5 1    
     8    4   70 1    
     9    5    6 1    
    10    5   65 1    
    11    5   71 1    
    12    6    7 1    
    13    6   72 1    
    14    6   73 1    
    15    7    8 1    
    16    8    9 1    
    17    8   74 1    
    18    8   75 1    
    19    9   10 ar   
    20    9   14 ar   
    21   10   11 ar   
    22   10   76 1    
    23   11   12 ar   
    24   11   48 1    
    25   12   13 ar   
    26   12   77 1    
    27   13   14 ar   
    28   13   15 1    
    29   14   78 1    
    30   15   16 1    
    31   15   79 1    
    32   15   80 1    
    33   16   17 1    
    34   17   18 1    
    35   17   81 1    
    36   17   82 1    
    37   18   19 1    
    38   18   22 1    
    39   18   83 1    
    40   19   20 am   BACKBONE|DICT|INTERRES
    41   19   21 2    
    42   20   84 1    
    43   20   85 1    
    44   22   23 am   BACKBONE|DICT|INTERRES
    45   22   86 1    
    46   23   24 2    
    47   23   25 1    
    48   25   26 1    
    49   25   27 1    
    50   25   87 1    
    51   26   88 1    
    52   26   89 1    
    53   26   90 1    
    54   27   28 am   BACKBONE|DICT|INTERRES
    55   27   91 1    
    56   28   29 2    
    57   28   30 1    
    58   30   31 1    
    59   30   32 1    
    60   30   92 1    
    61   31   93 1    
    62   31   94 1    
    63   31   95 1    
    64   32   33 am   BACKBONE|DICT|INTERRES
    65   32   96 1    
    66   33   34 2    
    67   33   35 1    
    68   35   36 1    
    69   35   37 1    
    70   35   97 1    
    71   36   98 1    
    72   36   99 1    
    73   36  100 1    
    74   37   38 am   BACKBONE|DICT|INTERRES
    75   37  101 1    
    76   38   39 2    
    77   38   40 1    
    78   40   41 1    
    79   40   42 1    
    80   40  102 1    
    81   41  103 1    
    82   41  104 1    
    83   41  105 1    
    84   42   43 am   BACKBONE|DICT|INTERRES
    85   42  106 1    
    86   43   44 2    
    87   43   45 1    
    88   45   46 1    
    89   45   49 1    
    90   45  107 1    
    91   46   47 1    
    92   46  108 1    
    93   46  109 1    
    94   47   48 1    
    95   48  110 1    
    96   48  111 1    
    97   49   50 am   BACKBONE|DICT|INTERRES
    98   49  112 1    
    99   50   51 2    
   100   50   52 1    
   101   52   53 1    
   102   52   54 1    
   103   52  113 1    
   104   53  114 1    
   105   53  115 1    
   106   53  116 1    
   107   54   55 am   BACKBONE|DICT|INTERRES
   108   54  117 1    
   109   55   56 2    
   110   55   57 1    
   111   57   58 1    
   112   57   59 1    
   113   57  118 1    
   114   58  119 1    
   115   58  120 1    
   116   58  121 1    
   117   59   60 am   BACKBONE|DICT|INTERRES
   118   59  122 1    
   119   60   61 2    
   120   60   62 1    
   121   62   63 1    
   122   62   64 1    
   123   62  123 1    
   124   63  124 1    
   125   63  125 1    
   126   63  126 1    
   127   64   65 am   BACKBONE|DICT|INTERRES
   128   64  127 1    
   129   65   66 2    
@<TRIPOS>SUBSTRUCTURE
     1 UNK         1 GROUP             0       ****    0 ROOT    
