@<TRIPOS>MOLECULE
3R135
127   129    1
SMALL
USER_CHARGES


@<TRIPOS>ATOM
      1 CA        -81.9036   21.7733  -70.2071 C.3       0 UNK        -0.1998 
      2 C         -82.4338   22.9478  -71.0157 C.2       0 UNK         0.4909 
      3 O         -83.5853   22.9214  -71.4527 O.2       0 UNK        -0.5240 
      4 N         -81.6062   23.9817  -71.2077 N.am      1 UNK        -0.4739 
      5 CA        -81.9026   25.1569  -72.0329 C.3       1 UNK         0.0864 
      6 C6        -80.9955   26.3657  -71.6746 C.3       11 UNK        -0.0881 
      7 S7        -79.2141   25.9698  -71.5255 S.3       11 UNK        -0.2682 
      8 C8        -78.6363   27.2023  -70.3101 C.3       11 UNK         0.0289 
      9 C9        -77.9774   28.4085  -70.9696 C.ar      11 UNK        -0.0687 
     10 C10       -78.6476   29.1346  -71.9579 C.ar      11 UNK        -0.0823 
     11 C11       -78.0377   30.2260  -72.5783 C.ar      11 UNK        -0.0830 
     12 C12       -76.7636   30.6273  -72.1700 C.ar      11 UNK        -0.1021 
     13 C13       -76.0839   29.9199  -71.1743 C.ar      11 UNK        -0.0753 
     14 C14       -76.6932   28.8078  -70.5833 C.ar      11 UNK        -0.0933 
     15 C15       -74.6935   30.3534  -70.7332 C.3       11 UNK         0.0166 
     16 S16       -73.3992   29.5465  -71.7245 S.3       11 UNK        -0.2615 
     17 C17       -73.3989   30.5656  -73.2452 C.3       11 UNK        -0.0865 
     18 CA        -71.9839   31.0353  -73.6736 C.3       10 UNK         0.0862 
     19 C         -71.3994   32.1238  -72.7252 C.2       10 UNK         0.5551 
     20 N         -70.2400   31.9197  -72.1116 N.am      10 UNK        -0.7319 
     21 O         -72.0054   33.1790  -72.5558 O.2       10 UNK        -0.5018 
     22 N         -71.1116   29.8806  -73.9244 N.am      10 UNK        -0.4509 
     23 C         -70.0512   29.8568  -74.7403 C.2       10 UNK         0.4899 
     24 O         -69.6321   30.8389  -75.3531 O.2       10 UNK        -0.4839 
     25 CA        -69.3408   28.4988  -74.9142 C.3       9 UNK         0.0222 
     26 CB        -68.0743   28.4418  -74.0443 C.3       9 UNK        -0.1966 
     27 N         -70.1934   27.3421  -74.6062 N.am      9 UNK        -0.4218 
     28 C         -71.2807   26.9862  -75.3061 C.2       9 UNK         0.5020 
     29 O         -71.6574   27.5689  -76.3253 O.2       9 UNK        -0.5274 
     30 CA        -72.1010   25.8205  -74.7247 C.3       8 UNK         0.0270 
     31 CB        -72.9101   26.2928  -73.5044 C.3       8 UNK        -0.1976 
     32 N         -73.0221   25.2453  -75.7070 N.am      8 UNK        -0.4313 
     33 C         -72.6480   24.4942  -76.7519 C.2       8 UNK         0.5041 
     34 O         -71.4885   24.1264  -76.9505 O.2       8 UNK        -0.5577 
     35 CA        -73.7478   24.0658  -77.7392 C.3       7 UNK         0.0284 
     36 CB        -74.4098   22.7606  -77.2711 C.3       7 UNK        -0.1958 
     37 N         -74.7687   25.0971  -77.9493 N.am      7 UNK        -0.4454 
     38 C         -74.5585   26.2355  -78.6274 C.2       7 UNK         0.5089 
     39 O         -73.4908   26.5234  -79.1688 O.2       7 UNK        -0.5125 
     40 CA        -75.7412   27.2102  -78.7505 C.3       6 UNK         0.0408 
     41 CB        -76.5940   26.8725  -79.9842 C.3       6 UNK        -0.1791 
     42 N         -76.5911   27.2176  -77.5599 N.am      6 UNK        -0.4762 
     43 C         -76.3120   27.8845  -76.4293 C.2       6 UNK         0.5007 
     44 O         -75.3052   28.5752  -76.2728 O.2       6 UNK        -0.5032 
     45 CA        -77.3275   27.7338  -75.2731 C.3       5 UNK         0.0783 
     46 C46       -78.5279   28.7044  -75.4433 C.3       11 UNK        -0.0857 
     47 S47       -78.0813   30.4751  -75.3298 S.3       11 UNK        -0.2512 
     48 C48       -78.7482   30.9567  -73.7052 C.3       11 UNK         0.0225 
     49 N         -77.7858   26.3434  -75.1454 N.am      5 UNK        -0.4615 
     50 C         -76.9899   25.2968  -74.8675 C.2       4 UNK         0.5053 
     51 O         -75.7955   25.4058  -74.5957 O.2       4 UNK        -0.5105 
     52 CA        -77.5842   23.8801  -74.9993 C.3       4 UNK         0.0263 
     53 CB        -77.9365   23.2709  -73.6357 C.3       4 UNK        -0.1981 
     54 N         -78.7350   23.8086  -75.9024 N.am      4 UNK        -0.4224 
     55 C         -78.6520   24.0375  -77.2225 C.2       3 UNK         0.4895 
     56 O         -77.5892   24.2701  -77.7998 O.2       3 UNK        -0.5091 
     57 CA        -79.9561   24.0626  -78.0391 C.3       3 UNK         0.0250 
     58 CB        -80.1403   22.7338  -78.7886 C.3       3 UNK        -0.1996 
     59 N         -81.1658   24.3510  -77.2621 N.am      3 UNK        -0.4254 
     60 C         -81.3879   25.4550  -76.5341 C.2       2 UNK         0.5004 
     61 O         -80.5666   26.3643  -76.4053 O.2       2 UNK        -0.5226 
     62 CA        -82.7349   25.5552  -75.7913 C.3       2 UNK         0.0269 
     63 CB        -83.7279   24.4150  -76.1174 C.3       2 UNK        -0.1926 
     64 N         -82.5559   25.6655  -74.3376 N.am      2 UNK        -0.4687 
     65 C         -81.8769   24.8235  -73.5422 C.2       1 UNK         0.5165 
     66 O         -81.2616   23.8355  -73.9556 O.2       1 UNK        -0.5079 
     67 H67       -82.5243   21.6127  -69.3260 H         1 UNK         0.0900 
     68 H68       -81.9232   20.8652  -70.8090 H         1 UNK         0.0900 
     69 H69       -80.8786   21.9374  -69.8748 H         1 UNK         0.0900 
     70 H70       -80.6606   23.9423  -70.8540 H         1 UNK         0.2959 
     71 H71       -82.9309   25.4502  -71.8075 H         1 UNK         0.1079 
     72 H72       -81.1242   27.1734  -72.3960 H         1 UNK         0.0837 
     73 H73       -81.3361   26.7727  -70.7217 H         1 UNK         0.0837 
     74 H74       -79.4571   27.5388  -69.6763 H         1 UNK         0.0685 
     75 H75       -77.9282   26.7042  -69.6462 H         1 UNK         0.0685 
     76 H76       -79.6386   28.8371  -72.2635 H         1 UNK         0.1434 
     77 H77       -76.2994   31.4817  -72.6417 H         1 UNK         0.1329 
     78 H78       -76.1644   28.2551  -69.8187 H         1 UNK         0.1335 
     79 H79       -74.5894   31.4381  -70.7906 H         1 UNK         0.0680 
     80 H80       -74.5420   30.0919  -69.6848 H         1 UNK         0.0680 
     81 H81       -73.8473   29.9731  -74.0452 H         1 UNK         0.1032 
     82 H82       -74.0535   31.4292  -73.1255 H         1 UNK         0.1032 
     83 H83       -72.1088   31.5421  -74.6325 H         1 UNK         0.0461 
     84 H84       -69.8678   32.6326  -71.5044 H         1 UNK         0.3453 
     85 H85       -69.7382   31.0579  -72.2500 H         1 UNK         0.3453 
     86 H86       -71.3692   29.0337  -73.4408 H         1 UNK         0.2984 
     87 H87       -69.0393   28.4212  -75.9609 H         1 UNK         0.0554 
     88 H88       -67.4085   29.2764  -74.2694 H         1 UNK         0.0847 
     89 H89       -67.5105   27.5258  -74.2219 H         1 UNK         0.0847 
     90 H90       -68.3097   28.4918  -72.9804 H         1 UNK         0.0847 
     91 H91       -69.9510   26.8083  -73.7832 H         1 UNK         0.3141 
     92 H92       -71.4094   25.0381  -74.4053 H         1 UNK         0.0743 
     93 H93       -73.6191   27.0781  -73.7728 H         1 UNK         0.0784 
     94 H94       -73.4761   25.4724  -73.0628 H         1 UNK         0.0784 
     95 H95       -72.2621   26.6901  -72.7226 H         1 UNK         0.0784 
     96 H96       -74.0032   25.4801  -75.5953 H         1 UNK         0.3213 
     97 H97       -73.2716   23.8725  -78.7031 H         1 UNK         0.0855 
     98 H98       -74.7737   22.8399  -76.2478 H         1 UNK         0.0814 
     99 H99       -73.6934   21.9385  -77.2914 H         1 UNK         0.0814 
    100 H100      -75.2465   22.4791  -77.9112 H         1 UNK         0.0814 
    101 H101      -75.7099   24.8970  -77.6249 H         1 UNK         0.3105 
    102 H102      -75.3322   28.2131  -78.8917 H         1 UNK         0.0547 
    103 H103      -75.9895   26.8961  -80.8919 H         1 UNK         0.0837 
    104 H104      -77.0354   25.8778  -79.9147 H         1 UNK         0.0837 
    105 H105      -77.4031   27.5908  -80.1165 H         1 UNK         0.0837 
    106 H106      -77.4112   26.6269  -77.5844 H         1 UNK         0.3020 
    107 H107      -76.8077   27.9874  -74.3455 H         1 UNK         0.1245 
    108 H108      -79.2934   28.4835  -74.6986 H         1 UNK         0.0781 
    109 H109      -79.0118   28.5454  -76.4086 H         1 UNK         0.0781 
    110 H110      -79.8225   30.7671  -73.6809 H         1 UNK         0.0836 
    111 H111      -78.6258   32.0331  -73.5762 H         1 UNK         0.0836 
    112 H112      -78.7536   26.1710  -75.3960 H         1 UNK         0.3022 
    113 H113      -76.8034   23.2539  -75.4294 H         1 UNK         0.0747 
    114 H114      -78.1645   22.2089  -73.7259 H         1 UNK         0.0793 
    115 H115      -77.1064   23.3675  -72.9346 H         1 UNK         0.0793 
    116 H116      -78.8003   23.7552  -73.1884 H         1 UNK         0.0793 
    117 H117      -79.6443   23.6610  -75.4784 H         1 UNK         0.3047 
    118 H118      -79.8500   24.8595  -78.7781 H         1 UNK         0.0822 
    119 H119      -80.9987   22.7706  -79.4596 H         1 UNK         0.0807 
    120 H120      -80.2846   21.8994  -78.1010 H         1 UNK         0.0807 
    121 H121      -79.2652   22.5051  -79.3991 H         1 UNK         0.0807 
    122 H122      -81.8885   23.6461  -77.2795 H         1 UNK         0.2946 
    123 H123      -83.1860   26.4914  -76.1248 H         1 UNK         0.1144 
    124 H124      -84.6844   24.5806  -75.6213 H         1 UNK         0.0793 
    125 H125      -83.3599   23.4401  -75.7949 H         1 UNK         0.0793 
    126 H126      -83.9347   24.3606  -77.1872 H         1 UNK         0.0793 
    127 H127      -82.9969   26.4699  -73.9135 H         1 UNK         0.2896 
@<TRIPOS>BOND
     1    1    2 1    
     2    1   67 1    
     3    1   68 1    
     4    1   69 1    
     5    2    3 2    
     6    2    4 am   BACKBONE|DICT|INTERRES
     7    4    5 1    
     8    4   70 1    
     9    5    6 1    
    10    5   65 1    
    11    5   71 1    
    12    6    7 1    
    13    6   72 1    
    14    6   73 1    
    15    7    8 1    
    16    8    9 1    
    17    8   74 1    
    18    8   75 1    
    19    9   10 ar   
    20    9   14 ar   
    21   10   11 ar   
    22   10   76 1    
    23   11   12 ar   
    24   11   48 1    
    25   12   13 ar   
    26   12   77 1    
    27   13   14 ar   
    28   13   15 1    
    29   14   78 1    
    30   15   16 1    
    31   15   79 1    
    32   15   80 1    
    33   16   17 1    
    34   17   18 1    
    35   17   81 1    
    36   17   82 1    
    37   18   19 1    
    38   18   22 1    
    39   18   83 1    
    40   19   20 am   BACKBONE|DICT|INTERRES
    41   19   21 2    
    42   20   84 1    
    43   20   85 1    
    44   22   23 am   BACKBONE|DICT|INTERRES
    45   22   86 1    
    46   23   24 2    
    47   23   25 1    
    48   25   26 1    
    49   25   27 1    
    50   25   87 1    
    51   26   88 1    
    52   26   89 1    
    53   26   90 1    
    54   27   28 am   BACKBONE|DICT|INTERRES
    55   27   91 1    
    56   28   29 2    
    57   28   30 1    
    58   30   31 1    
    59   30   32 1    
    60   30   92 1    
    61   31   93 1    
    62   31   94 1    
    63   31   95 1    
    64   32   33 am   BACKBONE|DICT|INTERRES
    65   32   96 1    
    66   33   34 2    
    67   33   35 1    
    68   35   36 1    
    69   35   37 1    
    70   35   97 1    
    71   36   98 1    
    72   36   99 1    
    73   36  100 1    
    74   37   38 am   BACKBONE|DICT|INTERRES
    75   37  101 1    
    76   38   39 2    
    77   38   40 1    
    78   40   41 1    
    79   40   42 1    
    80   40  102 1    
    81   41  103 1    
    82   41  104 1    
    83   41  105 1    
    84   42   43 am   BACKBONE|DICT|INTERRES
    85   42  106 1    
    86   43   44 2    
    87   43   45 1    
    88   45   46 1    
    89   45   49 1    
    90   45  107 1    
    91   46   47 1    
    92   46  108 1    
    93   46  109 1    
    94   47   48 1    
    95   48  110 1    
    96   48  111 1    
    97   49   50 am   BACKBONE|DICT|INTERRES
    98   49  112 1    
    99   50   51 2    
   100   50   52 1    
   101   52   53 1    
   102   52   54 1    
   103   52  113 1    
   104   53  114 1    
   105   53  115 1    
   106   53  116 1    
   107   54   55 am   BACKBONE|DICT|INTERRES
   108   54  117 1    
   109   55   56 2    
   110   55   57 1    
   111   57   58 1    
   112   57   59 1    
   113   57  118 1    
   114   58  119 1    
   115   58  120 1    
   116   58  121 1    
   117   59   60 am   BACKBONE|DICT|INTERRES
   118   59  122 1    
   119   60   61 2    
   120   60   62 1    
   121   62   63 1    
   122   62   64 1    
   123   62  123 1    
   124   63  124 1    
   125   63  125 1    
   126   63  126 1    
   127   64   65 am   BACKBONE|DICT|INTERRES
   128   64  127 1    
   129   65   66 2    
@<TRIPOS>SUBSTRUCTURE
     1 UNK         1 GROUP             0       ****    0 ROOT    
