@<TRIPOS>MOLECULE
3R135
127   129    1
SMALL
USER_CHARGES


@<TRIPOS>ATOM
      1 CA        -84.0108   22.4276  -71.7899 C.3       0 UNK        -0.1998 
      2 C         -83.5911   23.8714  -72.0189 C.2       0 UNK         0.4909 
      3 O         -84.3438   24.6428  -72.6155 O.2       0 UNK        -0.5240 
      4 N         -82.3884   24.2454  -71.5624 N.am      1 UNK        -0.4739 
      5 CA        -81.8019   25.5849  -71.6947 C.3       1 UNK         0.0864 
      6 C6        -80.7811   25.8476  -70.5542 C.3       11 UNK        -0.0881 
      7 S7        -80.4273   27.6229  -70.2971 S.3       11 UNK        -0.2682 
      8 C8        -78.6450   27.7050  -70.6974 C.3       11 UNK         0.0289 
      9 C9        -78.2318   28.9339  -71.5001 C.ar      11 UNK        -0.0687 
     10 C10       -79.0686   29.4723  -72.4822 C.ar      11 UNK        -0.0823 
     11 C11       -78.6440   30.5397  -73.2763 C.ar      11 UNK        -0.0830 
     12 C12       -77.3748   31.0864  -73.0744 C.ar      11 UNK        -0.1021 
     13 C13       -76.5190   30.5485  -72.1093 C.ar      11 UNK        -0.0753 
     14 C14       -76.9562   29.4790  -71.3202 C.ar      11 UNK        -0.0933 
     15 C15       -75.1113   31.1047  -71.9423 C.3       11 UNK         0.0166 
     16 S16       -74.0731   30.8090  -73.4128 S.3       11 UNK        -0.2615 
     17 C17       -73.9454   28.9869  -73.4284 C.3       11 UNK        -0.0865 
     18 CA        -72.6258   28.4750  -72.7992 C.3       10 UNK         0.0862 
     19 C         -72.6712   26.9349  -72.5648 C.2       10 UNK         0.5551 
     20 N         -71.8289   26.1278  -73.2010 N.am      10 UNK        -0.7319 
     21 O         -73.4713   26.4669  -71.7586 O.2       10 UNK        -0.5018 
     22 N         -71.4557   28.9407  -73.5578 N.am      10 UNK        -0.4509 
     23 C         -70.2088   29.0072  -73.0756 C.2       10 UNK         0.4899 
     24 O         -69.9214   28.7873  -71.8977 O.2       10 UNK        -0.4839 
     25 CA        -69.0964   29.3784  -74.0814 C.3       9 UNK         0.0222 
     26 CB        -67.7084   28.8690  -73.6369 C.3       9 UNK        -0.1966 
     27 N         -69.3731   28.9615  -75.4656 N.am      9 UNK        -0.4218 
     28 C         -69.6340   27.7182  -75.8965 C.2       9 UNK         0.5020 
     29 O         -69.6911   26.7261  -75.1651 O.2       9 UNK        -0.5274 
     30 CA        -69.8619   27.5570  -77.4074 C.3       8 UNK         0.0270 
     31 CB        -68.5660   27.1076  -78.1020 C.3       8 UNK        -0.1976 
     32 N         -70.9205   26.5844  -77.6826 N.am      8 UNK        -0.4313 
     33 C         -72.2196   26.7917  -77.4365 C.2       8 UNK         0.5041 
     34 O         -72.6766   27.8505  -76.9964 O.2       8 UNK        -0.5577 
     35 CA        -73.1576   25.6156  -77.7283 C.3       7 UNK         0.0284 
     36 CB        -73.1858   24.6239  -76.5511 C.3       7 UNK        -0.1958 
     37 N         -74.4996   26.1327  -77.9807 N.am      7 UNK        -0.4454 
     38 C         -75.4141   25.5674  -78.7757 C.2       7 UNK         0.5089 
     39 O         -75.2275   24.4976  -79.3591 O.2       7 UNK        -0.5125 
     40 CA        -76.7508   26.3195  -78.9642 C.3       6 UNK         0.0408 
     41 CB        -77.7977   25.4792  -79.7190 C.3       6 UNK        -0.1791 
     42 N         -77.3373   26.7528  -77.6959 N.am      6 UNK        -0.4762 
     43 C         -76.9728   27.8298  -76.9866 C.2       6 UNK         0.5007 
     44 O         -76.1028   28.6221  -77.3487 O.2       6 UNK        -0.5032 
     45 CA        -77.6651   28.0069  -75.6192 C.3       5 UNK         0.0783 
     46 C46       -79.0745   28.6336  -75.7907 C.3       11 UNK        -0.0857 
     47 S47       -79.0078   30.4445  -76.0181 S.3       11 UNK        -0.2512 
     48 C48       -79.5390   31.0628  -74.3882 C.3       11 UNK         0.0225 
     49 N         -77.7073   26.7368  -74.8801 N.am      5 UNK        -0.4615 
     50 C         -76.6260   26.0318  -74.5108 C.2       4 UNK         0.5053 
     51 O         -75.4780   26.4526  -74.6198 O.2       4 UNK        -0.5105 
     52 CA        -76.8376   24.6032  -73.9819 C.3       4 UNK         0.0263 
     53 CB        -76.8206   24.5488  -72.4469 C.3       4 UNK        -0.1981 
     54 N         -78.0817   24.0146  -74.4778 N.am      4 UNK        -0.4224 
     55 C         -78.1838   23.2882  -75.5994 C.2       3 UNK         0.4895 
     56 O         -77.2240   22.9583  -76.2955 O.2       3 UNK        -0.5091 
     57 CA        -79.6003   22.8625  -76.0292 C.3       3 UNK         0.0250 
     58 CB        -79.9507   21.4862  -75.4408 C.3       3 UNK        -0.1996 
     59 N         -80.6402   23.8260  -75.6570 N.am      3 UNK        -0.4254 
     60 C         -80.7304   25.0731  -76.1396 C.2       2 UNK         0.5004 
     61 O         -79.9583   25.5400  -76.9770 O.2       2 UNK        -0.5226 
     62 CA        -81.8364   25.9672  -75.5515 C.3       2 UNK         0.0269 
     63 CB        -83.1367   25.8031  -76.3533 C.3       2 UNK        -0.1926 
     64 N         -82.1163   25.7466  -74.1261 N.am      2 UNK        -0.4687 
     65 C         -81.2318   25.7911  -73.1186 C.2       1 UNK         0.5165 
     66 O         -80.0212   25.9363  -73.2945 O.2       1 UNK        -0.5079 
     67 H67       -83.2485   21.8607  -71.2558 H         1 UNK         0.0900 
     68 H68       -84.9302   22.3932  -71.2061 H         1 UNK         0.0900 
     69 H69       -84.1943   21.9346  -72.7442 H         1 UNK         0.0900 
     70 H70       -81.8053   23.5601  -71.1025 H         1 UNK         0.2959 
     71 H71       -82.6087   26.3126  -71.5774 H         1 UNK         0.1079 
     72 H72       -79.8642   25.2759  -70.7040 H         1 UNK         0.0837 
     73 H73       -81.1922   25.4849  -69.6107 H         1 UNK         0.0837 
     74 H74       -78.0795   27.6441  -69.7664 H         1 UNK         0.0685 
     75 H75       -78.3586   26.8426  -71.2921 H         1 UNK         0.0685 
     76 H76       -80.0413   29.0346  -72.6565 H         1 UNK         0.1434 
     77 H77       -77.0350   31.9020  -73.6984 H         1 UNK         0.1329 
     78 H78       -76.2902   29.0498  -70.5840 H         1 UNK         0.1335 
     79 H79       -75.1720   32.1792  -71.7640 H         1 UNK         0.0680 
     80 H80       -74.6208   30.6749  -71.0674 H         1 UNK         0.0680 
     81 H81       -74.0198   28.6504  -74.4646 H         1 UNK         0.1032 
     82 H82       -74.8105   28.5584  -72.9207 H         1 UNK         0.1032 
     83 H83       -72.5585   28.9138  -71.8017 H         1 UNK         0.0461 
     84 H84       -71.8717   25.1387  -73.0196 H         1 UNK         0.3453 
     85 H85       -71.1401   26.4897  -73.8527 H         1 UNK         0.3453 
     86 H86       -71.6093   29.1218  -74.5392 H         1 UNK         0.2984 
     87 H87       -69.0579   30.4685  -74.0947 H         1 UNK         0.0554 
     88 H88       -67.4287   29.2826  -72.6672 H         1 UNK         0.0847 
     89 H89       -66.9325   29.1594  -74.3451 H         1 UNK         0.0847 
     90 H90       -67.6886   27.7824  -73.5447 H         1 UNK         0.0847 
     91 H91       -69.3645   29.7062  -76.1498 H         1 UNK         0.3141 
     92 H92       -70.1663   28.5183  -77.8275 H         1 UNK         0.0743 
     93 H93       -68.2187   26.1445  -77.7251 H         1 UNK         0.0784 
     94 H94       -68.7025   27.0180  -79.1799 H         1 UNK         0.0784 
     95 H95       -67.7642   27.8289  -77.9373 H         1 UNK         0.0784 
     96 H96       -70.6226   25.6723  -77.9974 H         1 UNK         0.3213 
     97 H97       -72.7973   25.1050  -78.6242 H         1 UNK         0.0855 
     98 H98       -73.4674   25.1159  -75.6199 H         1 UNK         0.0814 
     99 H99       -72.2048   24.1745  -76.3938 H         1 UNK         0.0814 
    100 H100      -73.8922   23.8124  -76.7274 H         1 UNK         0.0814 
    101 H101      -74.6921   27.0401  -77.5636 H         1 UNK         0.3105 
    102 H102      -76.5368   27.2028  -79.5692 H         1 UNK         0.0547 
    103 H103      -78.7219   26.0373  -79.8691 H         1 UNK         0.0837 
    104 H104      -78.0447   24.5659  -79.1754 H         1 UNK         0.0837 
    105 H105      -77.4333   25.1872  -80.7047 H         1 UNK         0.0837 
    106 H106      -78.0835   26.1702  -77.3259 H         1 UNK         0.3020 
    107 H107      -77.0476   28.6851  -75.0247 H         1 UNK         0.1245 
    108 H108      -79.6982   28.4113  -74.9260 H         1 UNK         0.0781 
    109 H109      -79.6036   28.2015  -76.6418 H         1 UNK         0.0781 
    110 H110      -80.5789   30.7803  -74.2157 H         1 UNK         0.0836 
    111 H111      -79.5160   32.1535  -74.3953 H         1 UNK         0.0836 
    112 H112      -78.6231   26.3635  -74.6609 H         1 UNK         0.3022 
    113 H113      -75.9876   24.0154  -74.3360 H         1 UNK         0.0747 
    114 H114      -76.6458   23.5311  -72.0979 H         1 UNK         0.0793 
    115 H115      -76.0269   25.1733  -72.0332 H         1 UNK         0.0793 
    116 H116      -77.7652   24.8785  -72.0211 H         1 UNK         0.0793 
    117 H117      -78.9285   24.2908  -73.9954 H         1 UNK         0.3047 
    118 H118      -79.5987   22.7799  -77.1184 H         1 UNK         0.0822 
    119 H119      -80.9141   21.1309  -75.8070 H         1 UNK         0.0807 
    120 H120      -79.9923   21.5102  -74.3511 H         1 UNK         0.0807 
    121 H121      -79.2050   20.7411  -75.7220 H         1 UNK         0.0807 
    122 H122      -81.3178   23.5305  -74.9695 H         1 UNK         0.2946 
    123 H123      -81.5063   27.0009  -75.6579 H         1 UNK         0.1144 
    124 H124      -83.5507   24.7992  -76.2507 H         1 UNK         0.0793 
    125 H125      -82.9660   25.9796  -77.4165 H         1 UNK         0.0793 
    126 H126      -83.8963   26.5138  -76.0272 H         1 UNK         0.0793 
    127 H127      -83.0813   25.5522  -73.8751 H         1 UNK         0.2896 
@<TRIPOS>BOND
     1    1    2 1    
     2    1   67 1    
     3    1   68 1    
     4    1   69 1    
     5    2    3 2    
     6    2    4 am   BACKBONE|DICT|INTERRES
     7    4    5 1    
     8    4   70 1    
     9    5    6 1    
    10    5   65 1    
    11    5   71 1    
    12    6    7 1    
    13    6   72 1    
    14    6   73 1    
    15    7    8 1    
    16    8    9 1    
    17    8   74 1    
    18    8   75 1    
    19    9   10 ar   
    20    9   14 ar   
    21   10   11 ar   
    22   10   76 1    
    23   11   12 ar   
    24   11   48 1    
    25   12   13 ar   
    26   12   77 1    
    27   13   14 ar   
    28   13   15 1    
    29   14   78 1    
    30   15   16 1    
    31   15   79 1    
    32   15   80 1    
    33   16   17 1    
    34   17   18 1    
    35   17   81 1    
    36   17   82 1    
    37   18   19 1    
    38   18   22 1    
    39   18   83 1    
    40   19   20 am   BACKBONE|DICT|INTERRES
    41   19   21 2    
    42   20   84 1    
    43   20   85 1    
    44   22   23 am   BACKBONE|DICT|INTERRES
    45   22   86 1    
    46   23   24 2    
    47   23   25 1    
    48   25   26 1    
    49   25   27 1    
    50   25   87 1    
    51   26   88 1    
    52   26   89 1    
    53   26   90 1    
    54   27   28 am   BACKBONE|DICT|INTERRES
    55   27   91 1    
    56   28   29 2    
    57   28   30 1    
    58   30   31 1    
    59   30   32 1    
    60   30   92 1    
    61   31   93 1    
    62   31   94 1    
    63   31   95 1    
    64   32   33 am   BACKBONE|DICT|INTERRES
    65   32   96 1    
    66   33   34 2    
    67   33   35 1    
    68   35   36 1    
    69   35   37 1    
    70   35   97 1    
    71   36   98 1    
    72   36   99 1    
    73   36  100 1    
    74   37   38 am   BACKBONE|DICT|INTERRES
    75   37  101 1    
    76   38   39 2    
    77   38   40 1    
    78   40   41 1    
    79   40   42 1    
    80   40  102 1    
    81   41  103 1    
    82   41  104 1    
    83   41  105 1    
    84   42   43 am   BACKBONE|DICT|INTERRES
    85   42  106 1    
    86   43   44 2    
    87   43   45 1    
    88   45   46 1    
    89   45   49 1    
    90   45  107 1    
    91   46   47 1    
    92   46  108 1    
    93   46  109 1    
    94   47   48 1    
    95   48  110 1    
    96   48  111 1    
    97   49   50 am   BACKBONE|DICT|INTERRES
    98   49  112 1    
    99   50   51 2    
   100   50   52 1    
   101   52   53 1    
   102   52   54 1    
   103   52  113 1    
   104   53  114 1    
   105   53  115 1    
   106   53  116 1    
   107   54   55 am   BACKBONE|DICT|INTERRES
   108   54  117 1    
   109   55   56 2    
   110   55   57 1    
   111   57   58 1    
   112   57   59 1    
   113   57  118 1    
   114   58  119 1    
   115   58  120 1    
   116   58  121 1    
   117   59   60 am   BACKBONE|DICT|INTERRES
   118   59  122 1    
   119   60   61 2    
   120   60   62 1    
   121   62   63 1    
   122   62   64 1    
   123   62  123 1    
   124   63  124 1    
   125   63  125 1    
   126   63  126 1    
   127   64   65 am   BACKBONE|DICT|INTERRES
   128   64  127 1    
   129   65   66 2    
@<TRIPOS>SUBSTRUCTURE
     1 UNK         1 GROUP             0       ****    0 ROOT    
