@<TRIPOS>MOLECULE
3R135
127   129    1
SMALL
USER_CHARGES


@<TRIPOS>ATOM
      1 CA        -81.4792   24.6548  -71.2661 C.3       0 UNK        -0.1998 
      2 C         -81.9667   25.6354  -72.3207 C.2       0 UNK         0.4909 
      3 O         -82.9870   25.3874  -72.9655 O.2       0 UNK        -0.5240 
      4 N         -81.2478   26.7498  -72.5055 N.am      1 UNK        -0.4739 
      5 CA        -81.5621   27.8191  -73.4633 C.3       1 UNK         0.0864 
      6 C6        -80.9874   29.1920  -73.0199 C.3       11 UNK        -0.0881 
      7 S7        -81.4913   29.6458  -71.3159 S.3       11 UNK        -0.2682 
      8 C8        -80.1145   30.6859  -70.7059 C.3       11 UNK         0.0289 
      9 C9        -78.7423   30.0945  -71.0004 C.ar      11 UNK        -0.0687 
     10 C10       -78.4109   28.8117  -70.5532 C.ar      11 UNK        -0.0823 
     11 C11       -77.2123   28.2139  -70.9517 C.ar      11 UNK        -0.0830 
     12 C12       -76.3177   28.9277  -71.7546 C.ar      11 UNK        -0.1021 
     13 C13       -76.6217   30.2249  -72.1751 C.ar      11 UNK        -0.0753 
     14 C14       -77.8343   30.8039  -71.7929 C.ar      11 UNK        -0.0933 
     15 C15       -75.6812   30.9718  -73.1082 C.3       11 UNK         0.0166 
     16 S16       -74.5268   32.0644  -72.2163 S.3       11 UNK        -0.2615 
     17 C17       -73.3260   30.8861  -71.5029 C.3       11 UNK        -0.0865 
     18 CA        -72.0906   30.6506  -72.4116 C.3       10 UNK         0.0862 
     19 C         -71.0471   29.7655  -71.6870 C.2       10 UNK         0.5551 
     20 N         -70.0131   30.3642  -71.1132 N.am      10 UNK        -0.7319 
     21 O         -71.1904   28.5466  -71.6072 O.2       10 UNK        -0.5018 
     22 N         -72.4709   30.0122  -73.6758 N.am      10 UNK        -0.4509 
     23 C         -72.2629   30.5045  -74.9013 C.2       10 UNK         0.4899 
     24 O         -71.7340   31.5946  -75.1254 O.2       10 UNK        -0.4839 
     25 CA        -72.7520   29.6305  -76.0744 C.3       9 UNK         0.0222 
     26 CB        -72.0739   29.9852  -77.4147 C.3       9 UNK        -0.1966 
     27 N         -72.6639   28.1890  -75.8085 N.am      9 UNK        -0.4218 
     28 C         -71.5539   27.4729  -75.5664 C.2       9 UNK         0.5020 
     29 O         -70.4183   27.9467  -75.5094 O.2       9 UNK        -0.5274 
     30 CA        -71.7460   25.9614  -75.3587 C.3       8 UNK         0.0270 
     31 CB        -72.1909   25.6683  -73.9161 C.3       8 UNK        -0.1976 
     32 N         -72.7032   25.3782  -76.3033 N.am      8 UNK        -0.4313 
     33 C         -72.5058   25.2849  -77.6274 C.2       8 UNK         0.5041 
     34 O         -71.4563   25.6019  -78.1891 O.2       8 UNK        -0.5577 
     35 CA        -73.6810   24.7671  -78.4751 C.3       7 UNK         0.0284 
     36 CB        -73.7562   23.2328  -78.4303 C.3       7 UNK        -0.1958 
     37 N         -74.9648   25.3398  -78.0649 N.am      7 UNK        -0.4454 
     38 C         -75.2974   26.6333  -78.1852 C.2       7 UNK         0.5089 
     39 O         -74.5887   27.4788  -78.7305 O.2       7 UNK        -0.5125 
     40 CA        -76.6358   27.0652  -77.5632 C.3       6 UNK         0.0408 
     41 CB        -77.7958   26.8661  -78.5505 C.3       6 UNK        -0.1791 
     42 N         -76.9209   26.3597  -76.3123 N.am      6 UNK        -0.4762 
     43 C         -76.2506   26.5556  -75.1682 C.2       6 UNK         0.5007 
     44 O         -75.3350   27.3705  -75.0409 O.2       6 UNK        -0.5032 
     45 CA        -76.6353   25.6584  -73.9771 C.3       5 UNK         0.0783 
     46 C46       -77.8756   26.2161  -73.2474 C.3       11 UNK        -0.0857 
     47 S47       -77.9947   25.6056  -71.5303 S.3       11 UNK        -0.2512 
     48 C48       -76.9257   26.7619  -70.6018 C.3       11 UNK         0.0225 
     49 N         -76.8335   24.2660  -74.3871 N.am      5 UNK        -0.4615 
     50 C         -75.8602   23.4680  -74.8429 C.2       4 UNK         0.5053 
     51 O         -74.6832   23.8127  -74.9342 O.2       4 UNK        -0.5105 
     52 CA        -76.2720   22.0664  -75.3235 C.3       4 UNK         0.0263 
     53 CB        -76.2665   21.0750  -74.1497 C.3       4 UNK        -0.1981 
     54 N         -77.5768   22.0274  -75.9914 N.am      4 UNK        -0.4224 
     55 C         -77.9152   22.7386  -77.0766 C.2       3 UNK         0.4895 
     56 O         -77.1570   23.5312  -77.6363 O.2       3 UNK        -0.5091 
     57 CA        -79.3378   22.5562  -77.6361 C.3       3 UNK         0.0250 
     58 CB        -80.1265   21.3870  -77.0007 C.3       3 UNK        -0.1996 
     59 N         -80.1199   23.7972  -77.5702 N.am      3 UNK        -0.4254 
     60 C         -80.4271   24.5010  -76.4699 C.2       2 UNK         0.5004 
     61 O         -80.0102   24.2254  -75.3413 O.2       2 UNK        -0.5226 
     62 CA        -81.3762   25.6970  -76.6784 C.3       2 UNK         0.0269 
     63 CB        -82.6971   25.2537  -77.3360 C.3       2 UNK        -0.1926 
     64 N         -81.7022   26.3313  -75.4016 N.am      2 UNK        -0.4687 
     65 C         -81.1135   27.4161  -74.8883 C.2       1 UNK         0.5165 
     66 O         -80.2430   28.0593  -75.4774 O.2       1 UNK        -0.5079 
     67 H67       -82.3243   24.2101  -70.7413 H         1 UNK         0.0900 
     68 H68       -80.8456   25.1436  -70.5264 H         1 UNK         0.0900 
     69 H69       -80.9071   23.8551  -71.7359 H         1 UNK         0.0900 
     70 H70       -80.4048   26.8880  -71.9660 H         1 UNK         0.2959 
     71 H71       -82.6482   27.9308  -73.5027 H         1 UNK         0.1079 
     72 H72       -81.3257   29.9807  -73.6942 H         1 UNK         0.0837 
     73 H73       -79.9009   29.1746  -73.1016 H         1 UNK         0.0837 
     74 H74       -80.2105   31.6776  -71.1506 H         1 UNK         0.0685 
     75 H75       -80.2220   30.8204  -69.6289 H         1 UNK         0.0685 
     76 H76       -79.1189   28.2514  -69.9577 H         1 UNK         0.1434 
     77 H77       -75.4051   28.4558  -72.0921 H         1 UNK         0.1329 
     78 H78       -78.0865   31.7936  -72.1487 H         1 UNK         0.1335 
     79 H79       -76.2655   31.5817  -73.7987 H         1 UNK         0.0680 
     80 H80       -75.1340   30.2662  -73.7329 H         1 UNK         0.0680 
     81 H81       -73.0070   31.3022  -70.5453 H         1 UNK         0.1032 
     82 H82       -73.8182   29.9451  -71.2600 H         1 UNK         0.1032 
     83 H83       -71.6298   31.6205  -72.6104 H         1 UNK         0.0461 
     84 H84       -69.3325   29.8037  -70.6244 H         1 UNK         0.3453 
     85 H85       -69.8941   31.3643  -71.1645 H         1 UNK         0.3453 
     86 H86       -72.8424   29.0774  -73.5923 H         1 UNK         0.2984 
     87 H87       -73.8165   29.8442  -76.1820 H         1 UNK         0.0554 
     88 H88       -72.4513   29.3614  -78.2253 H         1 UNK         0.0847 
     89 H89       -70.9922   29.8565  -77.3681 H         1 UNK         0.0847 
     90 H90       -72.2665   31.0229  -77.6895 H         1 UNK         0.0847 
     91 H91       -73.5592   27.7087  -75.7600 H         1 UNK         0.3141 
     92 H92       -70.7802   25.4783  -75.5209 H         1 UNK         0.0743 
     93 H93       -72.2385   24.5957  -73.7272 H         1 UNK         0.0784 
     94 H94       -71.4893   26.0934  -73.1967 H         1 UNK         0.0784 
     95 H95       -73.1737   26.0887  -73.7008 H         1 UNK         0.0784 
     96 H96       -73.5620   25.0014  -75.9083 H         1 UNK         0.3213 
     97 H97       -73.5017   25.0672  -79.5098 H         1 UNK         0.0855 
     98 H98       -72.8336   22.7882  -78.8055 H         1 UNK         0.0814 
     99 H99       -74.5731   22.8561  -79.0461 H         1 UNK         0.0814 
    100 H100      -73.9040   22.8646  -77.4155 H         1 UNK         0.0814 
    101 H101      -75.6574   24.7008  -77.6817 H         1 UNK         0.3105 
    102 H102      -76.5663   28.1320  -77.3392 H         1 UNK         0.0547 
    103 H103      -77.6027   27.3912  -79.4869 H         1 UNK         0.0837 
    104 H104      -77.9504   25.8148  -78.7938 H         1 UNK         0.0837 
    105 H105      -78.7271   27.2620  -78.1464 H         1 UNK         0.0837 
    106 H106      -77.6127   25.6242  -76.3473 H         1 UNK         0.3020 
    107 H107      -75.7855   25.6858  -73.2912 H         1 UNK         0.1245 
    108 H108      -78.7821   25.9161  -73.7722 H         1 UNK         0.0781 
    109 H109      -77.9038   27.3054  -73.2606 H         1 UNK         0.0781 
    110 H110      -75.8812   26.5162  -70.7991 H         1 UNK         0.0836 
    111 H111      -77.0776   26.6073  -69.5326 H         1 UNK         0.0836 
    112 H112      -77.7846   23.9210  -74.3722 H         1 UNK         0.3022 
    113 H113      -75.5265   21.7370  -76.0494 H         1 UNK         0.0747 
    114 H114      -76.4591   20.0567  -74.4881 H         1 UNK         0.0793 
    115 H115      -75.2971   21.0696  -73.6488 H         1 UNK         0.0793 
    116 H116      -77.0183   21.3296  -73.4014 H         1 UNK         0.0793 
    117 H117      -78.2747   21.4194  -75.5882 H         1 UNK         0.3047 
    118 H118      -79.2116   22.3270  -78.6954 H         1 UNK         0.0822 
    119 H119      -80.3262   21.5467  -75.9404 H         1 UNK         0.0807 
    120 H120      -79.5889   20.4432  -77.1032 H         1 UNK         0.0807 
    121 H121      -81.0890   21.2555  -77.4953 H         1 UNK         0.0807 
    122 H122      -80.4772   24.1229  -78.4574 H         1 UNK         0.2946 
    123 H123      -80.8786   26.4146  -77.3339 H         1 UNK         0.1144 
    124 H124      -82.5368   24.8612  -78.3405 H         1 UNK         0.0793 
    125 H125      -83.1946   24.4755  -76.7553 H         1 UNK         0.0793 
    126 H126      -83.3899   26.0902  -77.4317 H         1 UNK         0.0793 
    127 H127      -82.3258   25.8154  -74.7877 H         1 UNK         0.2896 
@<TRIPOS>BOND
     1    1    2 1    
     2    1   67 1    
     3    1   68 1    
     4    1   69 1    
     5    2    3 2    
     6    2    4 am   BACKBONE|DICT|INTERRES
     7    4    5 1    
     8    4   70 1    
     9    5    6 1    
    10    5   65 1    
    11    5   71 1    
    12    6    7 1    
    13    6   72 1    
    14    6   73 1    
    15    7    8 1    
    16    8    9 1    
    17    8   74 1    
    18    8   75 1    
    19    9   10 ar   
    20    9   14 ar   
    21   10   11 ar   
    22   10   76 1    
    23   11   12 ar   
    24   11   48 1    
    25   12   13 ar   
    26   12   77 1    
    27   13   14 ar   
    28   13   15 1    
    29   14   78 1    
    30   15   16 1    
    31   15   79 1    
    32   15   80 1    
    33   16   17 1    
    34   17   18 1    
    35   17   81 1    
    36   17   82 1    
    37   18   19 1    
    38   18   22 1    
    39   18   83 1    
    40   19   20 am   BACKBONE|DICT|INTERRES
    41   19   21 2    
    42   20   84 1    
    43   20   85 1    
    44   22   23 am   BACKBONE|DICT|INTERRES
    45   22   86 1    
    46   23   24 2    
    47   23   25 1    
    48   25   26 1    
    49   25   27 1    
    50   25   87 1    
    51   26   88 1    
    52   26   89 1    
    53   26   90 1    
    54   27   28 am   BACKBONE|DICT|INTERRES
    55   27   91 1    
    56   28   29 2    
    57   28   30 1    
    58   30   31 1    
    59   30   32 1    
    60   30   92 1    
    61   31   93 1    
    62   31   94 1    
    63   31   95 1    
    64   32   33 am   BACKBONE|DICT|INTERRES
    65   32   96 1    
    66   33   34 2    
    67   33   35 1    
    68   35   36 1    
    69   35   37 1    
    70   35   97 1    
    71   36   98 1    
    72   36   99 1    
    73   36  100 1    
    74   37   38 am   BACKBONE|DICT|INTERRES
    75   37  101 1    
    76   38   39 2    
    77   38   40 1    
    78   40   41 1    
    79   40   42 1    
    80   40  102 1    
    81   41  103 1    
    82   41  104 1    
    83   41  105 1    
    84   42   43 am   BACKBONE|DICT|INTERRES
    85   42  106 1    
    86   43   44 2    
    87   43   45 1    
    88   45   46 1    
    89   45   49 1    
    90   45  107 1    
    91   46   47 1    
    92   46  108 1    
    93   46  109 1    
    94   47   48 1    
    95   48  110 1    
    96   48  111 1    
    97   49   50 am   BACKBONE|DICT|INTERRES
    98   49  112 1    
    99   50   51 2    
   100   50   52 1    
   101   52   53 1    
   102   52   54 1    
   103   52  113 1    
   104   53  114 1    
   105   53  115 1    
   106   53  116 1    
   107   54   55 am   BACKBONE|DICT|INTERRES
   108   54  117 1    
   109   55   56 2    
   110   55   57 1    
   111   57   58 1    
   112   57   59 1    
   113   57  118 1    
   114   58  119 1    
   115   58  120 1    
   116   58  121 1    
   117   59   60 am   BACKBONE|DICT|INTERRES
   118   59  122 1    
   119   60   61 2    
   120   60   62 1    
   121   62   63 1    
   122   62   64 1    
   123   62  123 1    
   124   63  124 1    
   125   63  125 1    
   126   63  126 1    
   127   64   65 am   BACKBONE|DICT|INTERRES
   128   64  127 1    
   129   65   66 2    
@<TRIPOS>SUBSTRUCTURE
     1 UNK         1 GROUP             0       ****    0 ROOT    
