@<TRIPOS>MOLECULE
3R135
127   129    1
SMALL
USER_CHARGES


@<TRIPOS>ATOM
      1 CA        -80.8458   24.4318  -72.7067 C.3       0 UNK        -0.1998 
      2 C         -80.5653   25.6889  -73.5135 C.2       0 UNK         0.4909 
      3 O         -79.5485   25.7536  -74.2065 O.2       0 UNK        -0.5240 
      4 N         -81.4797   26.6683  -73.4349 N.am      1 UNK        -0.4739 
      5 CA        -81.3961   28.0290  -73.9998 C.3       1 UNK         0.0864 
      6 C6        -80.3710   28.9218  -73.2470 C.3       11 UNK        -0.0881 
      7 S7        -80.9045   29.2580  -71.5391 S.3       11 UNK        -0.2682 
      8 C8        -79.4462   30.1450  -70.8936 C.3       11 UNK         0.0289 
      9 C9        -78.2234   29.2573  -70.6711 C.ar      11 UNK        -0.0687 
     10 C10       -78.3537   27.9671  -70.1437 C.ar      11 UNK        -0.0823 
     11 C11       -77.2279   27.1788  -69.8932 C.ar      11 UNK        -0.0830 
     12 C12       -75.9574   27.6962  -70.1626 C.ar      11 UNK        -0.1021 
     13 C13       -75.8082   28.9844  -70.6826 C.ar      11 UNK        -0.0753 
     14 C14       -76.9444   29.7584  -70.9397 C.ar      11 UNK        -0.0933 
     15 C15       -74.4133   29.5431  -70.9217 C.3       11 UNK         0.0166 
     16 S16       -73.8531   29.2569  -72.6273 S.3       11 UNK        -0.2615 
     17 C17       -74.1504   30.8914  -73.3841 C.3       11 UNK        -0.0865 
     18 CA        -74.3417   30.8251  -74.9266 C.3       10 UNK         0.0862 
     19 C         -74.7400   32.2009  -75.5431 C.2       10 UNK         0.5551 
     20 N         -74.3689   32.5000  -76.7823 N.am      10 UNK        -0.7319 
     21 O         -75.4217   32.9993  -74.9045 O.2       10 UNK        -0.5018 
     22 N         -73.2431   30.1313  -75.6257 N.am      10 UNK        -0.4509 
     23 C         -71.9614   30.5172  -75.6836 C.2       10 UNK         0.4899 
     24 O         -71.5239   31.5311  -75.1362 O.2       10 UNK        -0.4839 
     25 CA        -71.0199   29.6252  -76.5199 C.3       9 UNK         0.0222 
     26 CB        -69.5397   30.0551  -76.4280 C.3       9 UNK        -0.1966 
     27 N         -71.1646   28.1925  -76.2312 N.am      9 UNK        -0.4218 
     28 C         -70.9629   27.5599  -75.0650 C.2       9 UNK         0.5020 
     29 O         -70.5849   28.1240  -74.0369 O.2       9 UNK        -0.5274 
     30 CA        -71.2065   26.0330  -75.0553 C.3       8 UNK         0.0270 
     31 CB        -71.2241   25.4465  -73.6310 C.3       8 UNK        -0.1976 
     32 N         -72.4490   25.6590  -75.7399 N.am      8 UNK        -0.4313 
     33 C         -72.5948   25.5450  -77.0693 C.2       8 UNK         0.5041 
     34 O         -71.6646   25.7019  -77.8609 O.2       8 UNK        -0.5577 
     35 CA        -74.0088   25.2862  -77.6277 C.3       7 UNK         0.0284 
     36 CB        -74.1947   23.8001  -77.9684 C.3       7 UNK        -0.1958 
     37 N         -75.0852   25.7293  -76.7377 N.am      7 UNK        -0.4454 
     38 C         -75.2632   26.9936  -76.3308 C.2       7 UNK         0.5089 
     39 O         -74.5935   27.9397  -76.7461 O.2       7 UNK        -0.5125 
     40 CA        -76.3403   27.2493  -75.2642 C.3       6 UNK         0.0408 
     41 CB        -77.6146   27.7712  -75.9358 C.3       6 UNK        -0.1791 
     42 N         -76.6596   26.0841  -74.4299 N.am      6 UNK        -0.4762 
     43 C         -75.7898   25.4578  -73.6205 C.2       6 UNK         0.5007 
     44 O         -74.6134   25.7965  -73.4935 O.2       6 UNK        -0.5032 
     45 CA        -76.2866   24.1764  -72.9230 C.3       5 UNK         0.0783 
     46 C46       -77.2953   24.4453  -71.7759 C.3       11 UNK        -0.0857 
     47 S47       -76.4562   24.4999  -70.1591 S.3       11 UNK        -0.2512 
     48 C48       -77.3948   25.7918  -69.2838 C.3       11 UNK         0.0225 
     49 N         -76.8027   23.2291  -73.9133 N.am      5 UNK        -0.4615 
     50 C         -76.0186   22.5054  -74.7238 C.2       4 UNK         0.5053 
     51 O         -74.7898   22.5039  -74.6558 O.2       4 UNK        -0.5105 
     52 CA        -76.6980   21.6317  -75.7940 C.3       4 UNK         0.0263 
     53 CB        -76.7125   20.1605  -75.3475 C.3       4 UNK        -0.1981 
     54 N         -78.0601   22.0304  -76.1632 N.am      4 UNK        -0.4224 
     55 C         -78.4225   23.2084  -76.6892 C.2       3 UNK         0.4895 
     56 O         -77.6458   24.1522  -76.8496 O.2       3 UNK        -0.5091 
     57 CA        -79.8909   23.3417  -77.1228 C.3       3 UNK         0.0250 
     58 CB        -80.8710   22.4798  -76.2978 C.3       3 UNK        -0.1996 
     59 N         -80.3045   24.7411  -77.0597 N.am      3 UNK        -0.4254 
     60 C         -81.1019   25.3453  -77.9503 C.2       2 UNK         0.5004 
     61 O         -81.5692   24.7810  -78.9414 O.2       2 UNK        -0.5226 
     62 CA        -81.4646   26.8114  -77.6652 C.3       2 UNK         0.0269 
     63 CB        -82.7283   27.2817  -78.4123 C.3       2 UNK        -0.1926 
     64 N         -81.6412   27.0081  -76.2267 N.am      2 UNK        -0.4687 
     65 C         -81.2192   28.0730  -75.5373 C.2       1 UNK         0.5165 
     66 O         -80.7208   29.0640  -76.0739 O.2       1 UNK        -0.5079 
     67 H67       -81.8977   24.1531  -72.7651 H         1 UNK         0.0900 
     68 H68       -80.5873   24.5934  -71.6605 H         1 UNK         0.0900 
     69 H69       -80.2541   23.5956  -73.0759 H         1 UNK         0.0900 
     70 H70       -82.2946   26.5115  -72.8578 H         1 UNK         0.2959 
     71 H71       -82.3814   28.4715  -73.8434 H         1 UNK         0.1079 
     72 H72       -79.3890   28.4480  -73.2232 H         1 UNK         0.0837 
     73 H73       -80.2401   29.8887  -73.7363 H         1 UNK         0.0837 
     74 H74       -79.7142   30.6014  -69.9400 H         1 UNK         0.0685 
     75 H75       -79.2080   30.9657  -71.5722 H         1 UNK         0.0685 
     76 H76       -79.3365   27.5804  -69.9121 H         1 UNK         0.1434 
     77 H77       -75.0804   27.0972  -69.9580 H         1 UNK         0.1329 
     78 H78       -76.8304   30.7606  -71.3287 H         1 UNK         0.1335 
     79 H79       -74.3827   30.6071  -70.6822 H         1 UNK         0.0680 
     80 H80       -73.7036   29.0662  -70.2439 H         1 UNK         0.0680 
     81 H81       -75.0368   31.3263  -72.9200 H         1 UNK         0.1032 
     82 H82       -73.3199   31.5507  -73.1274 H         1 UNK         0.1032 
     83 H83       -75.2180   30.2023  -75.1038 H         1 UNK         0.0461 
     84 H84       -73.8233   31.8468  -77.3210 H         1 UNK         0.3453 
     85 H85       -74.6373   33.3862  -77.1798 H         1 UNK         0.3453 
     86 H86       -73.5280   29.2842  -76.1134 H         1 UNK         0.2984 
     87 H87       -71.3302   29.7532  -77.5578 H         1 UNK         0.0554 
     88 H88       -68.9047   29.4320  -77.0577 H         1 UNK         0.0847 
     89 H89       -69.1626   29.9945  -75.4066 H         1 UNK         0.0847 
     90 H90       -69.4108   31.0860  -76.7600 H         1 UNK         0.0847 
     91 H91       -71.4525   27.6112  -77.0115 H         1 UNK         0.3141 
     92 H92       -70.3674   25.5767  -75.5846 H         1 UNK         0.0743 
     93 H93       -71.9901   25.9165  -73.0128 H         1 UNK         0.0784 
     94 H94       -71.4141   24.3731  -73.6433 H         1 UNK         0.0784 
     95 H95       -70.2659   25.6000  -73.1330 H         1 UNK         0.0784 
     96 H96       -73.2725   25.5820  -75.1508 H         1 UNK         0.3213 
     97 H97       -74.1013   25.8596  -78.5524 H         1 UNK         0.0855 
     98 H98       -74.0441   23.1656  -77.0958 H         1 UNK         0.0814 
     99 H99       -73.4744   23.4839  -78.7240 H         1 UNK         0.0814 
    100 H100      -75.1903   23.6018  -78.3662 H         1 UNK         0.0814 
    101 H101      -75.7533   25.0335  -76.4247 H         1 UNK         0.3105 
    102 H102      -75.9611   28.0258  -74.5982 H         1 UNK         0.0547 
    103 H103      -77.4026   28.6210  -76.5861 H         1 UNK         0.0837 
    104 H104      -78.0969   27.0037  -76.5422 H         1 UNK         0.0837 
    105 H105      -78.3276   28.1118  -75.1910 H         1 UNK         0.0837 
    106 H106      -77.6216   25.7567  -74.4698 H         1 UNK         0.3020 
    107 H107      -75.4002   23.7077  -72.4871 H         1 UNK         0.1245 
    108 H108      -78.0294   23.6409  -71.7129 H         1 UNK         0.0781 
    109 H109      -77.8699   25.3585  -71.9419 H         1 UNK         0.0781 
    110 H110      -77.0582   25.8259  -68.2469 H         1 UNK         0.0836 
    111 H111      -78.4459   25.4999  -69.2559 H         1 UNK         0.0836 
    112 H112      -77.8017   23.1975  -74.0467 H         1 UNK         0.3022 
    113 H113      -76.0878   21.7046  -76.6962 H         1 UNK         0.0747 
    114 H114      -77.0846   19.5078  -76.1376 H         1 UNK         0.0793 
    115 H115      -75.7076   19.8176  -75.0961 H         1 UNK         0.0793 
    116 H116      -77.3369   20.0127  -74.4653 H         1 UNK         0.0793 
    117 H117      -78.7714   21.3206  -76.0641 H         1 UNK         0.3047 
    118 H118      -79.9229   23.0010  -78.1599 H         1 UNK         0.0822 
    119 H119      -80.6851   21.4139  -76.4331 H         1 UNK         0.0807 
    120 H120      -81.9019   22.6551  -76.6062 H         1 UNK         0.0807 
    121 H121      -80.8057   22.6993  -75.2325 H         1 UNK         0.0807 
    122 H122      -79.9161   25.2772  -76.2903 H         1 UNK         0.2946 
    123 H123      -80.6162   27.4028  -78.0182 H         1 UNK         0.1144 
    124 H124      -82.6061   27.1850  -79.4919 H         1 UNK         0.0793 
    125 H125      -82.9425   28.3304  -78.2062 H         1 UNK         0.0793 
    126 H126      -83.6038   26.6977  -78.1266 H         1 UNK         0.0793 
    127 H127      -82.0343   26.2311  -75.7131 H         1 UNK         0.2896 
@<TRIPOS>BOND
     1    1    2 1    
     2    1   67 1    
     3    1   68 1    
     4    1   69 1    
     5    2    3 2    
     6    2    4 am   BACKBONE|DICT|INTERRES
     7    4    5 1    
     8    4   70 1    
     9    5    6 1    
    10    5   65 1    
    11    5   71 1    
    12    6    7 1    
    13    6   72 1    
    14    6   73 1    
    15    7    8 1    
    16    8    9 1    
    17    8   74 1    
    18    8   75 1    
    19    9   10 ar   
    20    9   14 ar   
    21   10   11 ar   
    22   10   76 1    
    23   11   12 ar   
    24   11   48 1    
    25   12   13 ar   
    26   12   77 1    
    27   13   14 ar   
    28   13   15 1    
    29   14   78 1    
    30   15   16 1    
    31   15   79 1    
    32   15   80 1    
    33   16   17 1    
    34   17   18 1    
    35   17   81 1    
    36   17   82 1    
    37   18   19 1    
    38   18   22 1    
    39   18   83 1    
    40   19   20 am   BACKBONE|DICT|INTERRES
    41   19   21 2    
    42   20   84 1    
    43   20   85 1    
    44   22   23 am   BACKBONE|DICT|INTERRES
    45   22   86 1    
    46   23   24 2    
    47   23   25 1    
    48   25   26 1    
    49   25   27 1    
    50   25   87 1    
    51   26   88 1    
    52   26   89 1    
    53   26   90 1    
    54   27   28 am   BACKBONE|DICT|INTERRES
    55   27   91 1    
    56   28   29 2    
    57   28   30 1    
    58   30   31 1    
    59   30   32 1    
    60   30   92 1    
    61   31   93 1    
    62   31   94 1    
    63   31   95 1    
    64   32   33 am   BACKBONE|DICT|INTERRES
    65   32   96 1    
    66   33   34 2    
    67   33   35 1    
    68   35   36 1    
    69   35   37 1    
    70   35   97 1    
    71   36   98 1    
    72   36   99 1    
    73   36  100 1    
    74   37   38 am   BACKBONE|DICT|INTERRES
    75   37  101 1    
    76   38   39 2    
    77   38   40 1    
    78   40   41 1    
    79   40   42 1    
    80   40  102 1    
    81   41  103 1    
    82   41  104 1    
    83   41  105 1    
    84   42   43 am   BACKBONE|DICT|INTERRES
    85   42  106 1    
    86   43   44 2    
    87   43   45 1    
    88   45   46 1    
    89   45   49 1    
    90   45  107 1    
    91   46   47 1    
    92   46  108 1    
    93   46  109 1    
    94   47   48 1    
    95   48  110 1    
    96   48  111 1    
    97   49   50 am   BACKBONE|DICT|INTERRES
    98   49  112 1    
    99   50   51 2    
   100   50   52 1    
   101   52   53 1    
   102   52   54 1    
   103   52  113 1    
   104   53  114 1    
   105   53  115 1    
   106   53  116 1    
   107   54   55 am   BACKBONE|DICT|INTERRES
   108   54  117 1    
   109   55   56 2    
   110   55   57 1    
   111   57   58 1    
   112   57   59 1    
   113   57  118 1    
   114   58  119 1    
   115   58  120 1    
   116   58  121 1    
   117   59   60 am   BACKBONE|DICT|INTERRES
   118   59  122 1    
   119   60   61 2    
   120   60   62 1    
   121   62   63 1    
   122   62   64 1    
   123   62  123 1    
   124   63  124 1    
   125   63  125 1    
   126   63  126 1    
   127   64   65 am   BACKBONE|DICT|INTERRES
   128   64  127 1    
   129   65   66 2    
@<TRIPOS>SUBSTRUCTURE
     1 UNK         1 GROUP             0       ****    0 ROOT    
