@<TRIPOS>MOLECULE
3R135
127   129    1
SMALL
USER_CHARGES


@<TRIPOS>ATOM
      1 CA        -80.1389   22.4932  -72.5551 C.3       0 UNK        -0.1998 
      2 C         -81.1273   23.6452  -72.4487 C.2       0 UNK         0.4909 
      3 O         -82.1626   23.5067  -71.7971 O.2       0 UNK        -0.5240 
      4 N         -80.8193   24.7711  -73.1021 N.am      1 UNK        -0.4739 
      5 CA        -81.6757   25.9621  -73.1968 C.3       1 UNK         0.0864 
      6 C6        -80.8903   27.2630  -72.8755 C.3       11 UNK        -0.0881 
      7 S7        -80.2657   27.2848  -71.1635 S.3       11 UNK        -0.2682 
      8 C8        -79.4867   28.9313  -71.0755 C.3       11 UNK         0.0289 
      9 C9        -78.0898   28.9444  -71.6828 C.ar      11 UNK        -0.0687 
     10 C10       -77.0775   28.1708  -71.1122 C.ar      11 UNK        -0.0823 
     11 C11       -75.7929   28.1619  -71.6601 C.ar      11 UNK        -0.0830 
     12 C12       -75.5168   28.9535  -72.7779 C.ar      11 UNK        -0.1021 
     13 C13       -76.5085   29.7710  -73.3401 C.ar      11 UNK        -0.0753 
     14 C14       -77.7951   29.7492  -72.7873 C.ar      11 UNK        -0.0933 
     15 C15       -76.2630   30.6809  -74.5484 C.3       11 UNK         0.0166 
     16 S16       -74.5420   30.8003  -75.1485 S.3       11 UNK        -0.2615 
     17 C17       -73.7625   31.7676  -73.8062 C.3       11 UNK        -0.0865 
     18 CA        -72.2209   31.9109  -73.9749 C.3       10 UNK         0.0862 
     19 C         -71.5798   32.8150  -72.8785 C.2       10 UNK         0.5551 
     20 N         -70.3523   32.5557  -72.4447 N.am      10 UNK        -0.7319 
     21 O         -72.1880   33.7869  -72.4365 O.2       10 UNK        -0.5018 
     22 N         -71.5439   30.6201  -74.1955 N.am      10 UNK        -0.4509 
     23 C         -71.4986   29.5815  -73.3525 C.2       10 UNK         0.4899 
     24 O         -71.9465   29.6029  -72.2055 O.2       10 UNK        -0.4839 
     25 CA        -70.8803   28.2897  -73.9214 C.3       9 UNK         0.0222 
     26 CB        -70.7865   27.1615  -72.8788 C.3       9 UNK        -0.1966 
     27 N         -71.6499   27.8124  -75.0734 N.am      9 UNK        -0.4218 
     28 C         -71.5661   28.2886  -76.3213 C.2       9 UNK         0.5020 
     29 O         -70.7563   29.1568  -76.6558 O.2       9 UNK        -0.5274 
     30 CA        -72.5617   27.7196  -77.3539 C.3       8 UNK         0.0270 
     31 CB        -72.3401   28.2901  -78.7677 C.3       8 UNK        -0.1976 
     32 N         -72.5533   26.2540  -77.4270 N.am      8 UNK        -0.4313 
     33 C         -73.1135   25.4358  -76.5297 C.2       8 UNK         0.5041 
     34 O         -73.6328   25.8256  -75.4794 O.2       8 UNK        -0.5577 
     35 CA        -73.0926   23.9374  -76.8410 C.3       7 UNK         0.0284 
     36 CB        -71.8400   23.2639  -76.2527 C.3       7 UNK        -0.1958 
     37 N         -74.2954   23.3825  -76.2382 N.am      7 UNK        -0.4454 
     38 C         -74.9438   22.2691  -76.5898 C.2       7 UNK         0.5089 
     39 O         -74.5429   21.4998  -77.4657 O.2       7 UNK        -0.5125 
     40 CA        -76.2900   21.9791  -75.8883 C.3       6 UNK         0.0408 
     41 CB        -76.3278   20.5627  -75.2775 C.3       6 UNK        -0.1791 
     42 N         -76.7074   23.0002  -74.9125 N.am      6 UNK        -0.4762 
     43 C         -76.1565   23.3004  -73.7257 C.2       6 UNK         0.5007 
     44 O         -75.2074   22.6777  -73.2489 O.2       6 UNK        -0.5032 
     45 CA        -76.7489   24.5195  -72.9732 C.3       5 UNK         0.0783 
     46 C46       -75.9911   24.8596  -71.6602 C.3       11 UNK        -0.0857 
     47 S47       -74.4178   25.7562  -71.9237 S.3       11 UNK        -0.2512 
     48 C48       -74.6969   27.3164  -71.0275 C.3       11 UNK         0.0225 
     49 N         -76.8971   25.7001  -73.8387 N.am      5 UNK        -0.4615 
     50 C         -77.8332   25.8863  -74.7747 C.2       4 UNK         0.5053 
     51 O         -78.7203   25.0604  -75.0067 O.2       4 UNK        -0.5105 
     52 CA        -77.7656   27.1905  -75.5806 C.3       4 UNK         0.0263 
     53 CB        -76.4089   27.3706  -76.2859 C.3       4 UNK        -0.1981 
     54 N         -78.8492   27.2260  -76.5585 N.am      4 UNK        -0.4224 
     55 C         -79.3856   28.3294  -77.0928 C.2       3 UNK         0.4895 
     56 O         -78.9874   29.4675  -76.8454 O.2       3 UNK        -0.5091 
     57 CA        -80.5891   28.1610  -78.0402 C.3       3 UNK         0.0250 
     58 CB        -80.1354   27.9742  -79.5016 C.3       3 UNK        -0.1996 
     59 N         -81.5425   27.1272  -77.6119 N.am      3 UNK        -0.4254 
     60 C         -81.3929   25.7960  -77.6086 C.2       2 UNK         0.5004 
     61 O         -80.4069   25.2088  -78.0557 O.2       2 UNK        -0.5226 
     62 CA        -82.4746   25.0067  -76.8558 C.3       2 UNK         0.0269 
     63 CB        -82.5786   23.5483  -77.3379 C.3       2 UNK        -0.1926 
     64 N         -82.1387   25.0147  -75.4329 N.am      2 UNK        -0.4687 
     65 C         -82.3316   26.0440  -74.5935 C.2       1 UNK         0.5165 
     66 O         -82.9767   27.0466  -74.9056 O.2       1 UNK        -0.5079 
     67 H67       -79.4854   22.5995  -73.4208 H         1 UNK         0.0900 
     68 H68       -80.6717   21.5480  -72.6570 H         1 UNK         0.0900 
     69 H69       -79.5231   22.4410  -71.6577 H         1 UNK         0.0900 
     70 H70       -79.9730   24.8149  -73.6652 H         1 UNK         0.2959 
     71 H71       -82.5008   25.8879  -72.4851 H         1 UNK         0.1079 
     72 H72       -81.5297   28.1391  -73.0008 H         1 UNK         0.0837 
     73 H73       -80.0534   27.3955  -73.5613 H         1 UNK         0.0837 
     74 H74       -80.1332   29.6687  -71.5538 H         1 UNK         0.0685 
     75 H75       -79.4132   29.2250  -70.0276 H         1 UNK         0.0685 
     76 H76       -77.2989   27.5682  -70.2421 H         1 UNK         0.1434 
     77 H77       -74.5189   28.9304  -73.1910 H         1 UNK         0.1329 
     78 H78       -78.5718   30.3630  -73.2231 H         1 UNK         0.1335 
     79 H79       -76.6178   31.6865  -74.3181 H         1 UNK         0.0680 
     80 H80       -76.8768   30.3230  -75.3751 H         1 UNK         0.0680 
     81 H81       -73.9945   31.3090  -72.8442 H         1 UNK         0.1032 
     82 H82       -74.2343   32.7517  -73.7900 H         1 UNK         0.1032 
     83 H83       -72.0605   32.4639  -74.9010 H         1 UNK         0.0461 
     84 H84       -69.9376   33.1491  -71.7437 H         1 UNK         0.3453 
     85 H85       -69.8438   31.7646  -72.8059 H         1 UNK         0.3453 
     86 H86       -71.1579   30.4786  -75.1228 H         1 UNK         0.2984 
     87 H87       -69.8644   28.5264  -74.2444 H         1 UNK         0.0554 
     88 H88       -70.3100   26.2741  -73.2953 H         1 UNK         0.0847 
     89 H89       -71.7700   26.8708  -72.5114 H         1 UNK         0.0847 
     90 H90       -70.1953   27.4734  -72.0169 H         1 UNK         0.0847 
     91 H91       -72.3701   27.1136  -74.8976 H         1 UNK         0.3141 
     92 H92       -73.5545   28.0390  -77.0291 H         1 UNK         0.0743 
     93 H93       -71.3590   28.0223  -79.1624 H         1 UNK         0.0784 
     94 H94       -73.0952   27.9276  -79.4657 H         1 UNK         0.0784 
     95 H95       -72.4051   29.3792  -78.7645 H         1 UNK         0.0784 
     96 H96       -72.1053   25.8507  -78.2380 H         1 UNK         0.3213 
     97 H97       -73.1272   23.7905  -77.9231 H         1 UNK         0.0855 
     98 H98       -71.7838   23.3977  -75.1709 H         1 UNK         0.0814 
     99 H99       -70.9300   23.6841  -76.6831 H         1 UNK         0.0814 
    100 H100      -71.8310   22.1932  -76.4580 H         1 UNK         0.0814 
    101 H101      -74.6888   23.9757  -75.5159 H         1 UNK         0.3105 
    102 H102      -77.0444   22.0109  -76.6760 H         1 UNK         0.0547 
    103 H103      -76.1805   19.8040  -76.0470 H         1 UNK         0.0837 
    104 H104      -75.5453   20.4177  -74.5321 H         1 UNK         0.0837 
    105 H105      -77.2878   20.3589  -74.8031 H         1 UNK         0.0837 
    106 H106      -77.4819   23.5890  -75.2089 H         1 UNK         0.3020 
    107 H107      -77.7502   24.2092  -72.6716 H         1 UNK         0.1245 
    108 H108      -75.7842   23.9595  -71.0782 H         1 UNK         0.0781 
    109 H109      -76.6418   25.4526  -71.0197 H         1 UNK         0.0781 
    110 H110      -73.7652   27.8839  -71.0141 H         1 UNK         0.0836 
    111 H111      -74.9302   27.0972  -69.9844 H         1 UNK         0.0836 
    112 H112      -76.1842   26.4064  -73.7109 H         1 UNK         0.3022 
    113 H113      -77.9209   28.0068  -74.8781 H         1 UNK         0.0747 
    114 H114      -75.6088   27.5057  -75.5585 H         1 UNK         0.0793 
    115 H115      -76.1568   26.5091  -76.9052 H         1 UNK         0.0793 
    116 H116      -76.3998   28.2546  -76.9233 H         1 UNK         0.0793 
    117 H117      -79.2440   26.3215  -76.8040 H         1 UNK         0.3047 
    118 H118      -81.1464   29.0981  -77.9952 H         1 UNK         0.0822 
    119 H119      -80.9882   27.8891  -80.1748 H         1 UNK         0.0807 
    120 H120      -79.5148   27.0873  -79.6302 H         1 UNK         0.0807 
    121 H121      -79.5440   28.8286  -79.8333 H         1 UNK         0.0807 
    122 H122      -82.3546   27.4872  -77.1254 H         1 UNK         0.2946 
    123 H123      -83.4416   25.4906  -77.0134 H         1 UNK         0.1144 
    124 H124      -83.3759   23.0164  -76.8185 H         1 UNK         0.0793 
    125 H125      -81.6505   22.9976  -77.1780 H         1 UNK         0.0793 
    126 H126      -82.8026   23.5070  -78.4046 H         1 UNK         0.0793 
    127 H127      -81.5715   24.2470  -75.1037 H         1 UNK         0.2896 
@<TRIPOS>BOND
     1    1    2 1    
     2    1   67 1    
     3    1   68 1    
     4    1   69 1    
     5    2    3 2    
     6    2    4 am   BACKBONE|DICT|INTERRES
     7    4    5 1    
     8    4   70 1    
     9    5    6 1    
    10    5   65 1    
    11    5   71 1    
    12    6    7 1    
    13    6   72 1    
    14    6   73 1    
    15    7    8 1    
    16    8    9 1    
    17    8   74 1    
    18    8   75 1    
    19    9   10 ar   
    20    9   14 ar   
    21   10   11 ar   
    22   10   76 1    
    23   11   12 ar   
    24   11   48 1    
    25   12   13 ar   
    26   12   77 1    
    27   13   14 ar   
    28   13   15 1    
    29   14   78 1    
    30   15   16 1    
    31   15   79 1    
    32   15   80 1    
    33   16   17 1    
    34   17   18 1    
    35   17   81 1    
    36   17   82 1    
    37   18   19 1    
    38   18   22 1    
    39   18   83 1    
    40   19   20 am   BACKBONE|DICT|INTERRES
    41   19   21 2    
    42   20   84 1    
    43   20   85 1    
    44   22   23 am   BACKBONE|DICT|INTERRES
    45   22   86 1    
    46   23   24 2    
    47   23   25 1    
    48   25   26 1    
    49   25   27 1    
    50   25   87 1    
    51   26   88 1    
    52   26   89 1    
    53   26   90 1    
    54   27   28 am   BACKBONE|DICT|INTERRES
    55   27   91 1    
    56   28   29 2    
    57   28   30 1    
    58   30   31 1    
    59   30   32 1    
    60   30   92 1    
    61   31   93 1    
    62   31   94 1    
    63   31   95 1    
    64   32   33 am   BACKBONE|DICT|INTERRES
    65   32   96 1    
    66   33   34 2    
    67   33   35 1    
    68   35   36 1    
    69   35   37 1    
    70   35   97 1    
    71   36   98 1    
    72   36   99 1    
    73   36  100 1    
    74   37   38 am   BACKBONE|DICT|INTERRES
    75   37  101 1    
    76   38   39 2    
    77   38   40 1    
    78   40   41 1    
    79   40   42 1    
    80   40  102 1    
    81   41  103 1    
    82   41  104 1    
    83   41  105 1    
    84   42   43 am   BACKBONE|DICT|INTERRES
    85   42  106 1    
    86   43   44 2    
    87   43   45 1    
    88   45   46 1    
    89   45   49 1    
    90   45  107 1    
    91   46   47 1    
    92   46  108 1    
    93   46  109 1    
    94   47   48 1    
    95   48  110 1    
    96   48  111 1    
    97   49   50 am   BACKBONE|DICT|INTERRES
    98   49  112 1    
    99   50   51 2    
   100   50   52 1    
   101   52   53 1    
   102   52   54 1    
   103   52  113 1    
   104   53  114 1    
   105   53  115 1    
   106   53  116 1    
   107   54   55 am   BACKBONE|DICT|INTERRES
   108   54  117 1    
   109   55   56 2    
   110   55   57 1    
   111   57   58 1    
   112   57   59 1    
   113   57  118 1    
   114   58  119 1    
   115   58  120 1    
   116   58  121 1    
   117   59   60 am   BACKBONE|DICT|INTERRES
   118   59  122 1    
   119   60   61 2    
   120   60   62 1    
   121   62   63 1    
   122   62   64 1    
   123   62  123 1    
   124   63  124 1    
   125   63  125 1    
   126   63  126 1    
   127   64   65 am   BACKBONE|DICT|INTERRES
   128   64  127 1    
   129   65   66 2    
@<TRIPOS>SUBSTRUCTURE
     1 UNK         1 GROUP             0       ****    0 ROOT    
