@<TRIPOS>MOLECULE
3R135
127   129    1
SMALL
USER_CHARGES


@<TRIPOS>ATOM
      1 CA        -79.7392   24.5376  -71.0506 C.3       0 UNK        -0.1998 
      2 C         -80.0217   25.2958  -72.3370 C.2       0 UNK         0.4909 
      3 O         -79.3113   25.1071  -73.3238 O.2       0 UNK        -0.5240 
      4 N         -81.0638   26.1424  -72.3405 N.am      1 UNK        -0.4739 
      5 CA        -81.5224   26.9504  -73.4873 C.3       1 UNK         0.0864 
      6 C6        -80.4662   28.0131  -73.9323 C.3       11 UNK        -0.0881 
      7 S7        -81.0548   29.7334  -73.7838 S.3       11 UNK        -0.2682 
      8 C8        -80.8875   30.0631  -71.9954 C.3       11 UNK         0.0289 
      9 C9        -79.4547   29.9338  -71.4923 C.ar      11 UNK        -0.0687 
     10 C10       -79.0548   28.7767  -70.8179 C.ar      11 UNK        -0.0823 
     11 C11       -77.7396   28.6336  -70.3700 C.ar      11 UNK        -0.0830 
     12 C12       -76.8363   29.6852  -70.5406 C.ar      11 UNK        -0.1021 
     13 C13       -77.2126   30.8358  -71.2394 C.ar      11 UNK        -0.0753 
     14 C14       -78.5268   30.9586  -71.7064 C.ar      11 UNK        -0.0933 
     15 C15       -76.1884   31.9260  -71.5215 C.3       11 UNK         0.0166 
     16 S16       -75.1406   31.5040  -72.9553 S.3       11 UNK        -0.2615 
     17 C17       -73.9523   30.3245  -72.2223 C.3       11 UNK        -0.0865 
     18 CA        -72.5582   30.3826  -72.8928 C.3       10 UNK         0.0862 
     19 C         -71.5319   29.5390  -72.0909 C.2       10 UNK         0.5551 
     20 N         -70.6671   30.1805  -71.3171 N.am      10 UNK        -0.7319 
     21 O         -71.5485   28.3103  -72.1279 O.2       10 UNK        -0.5018 
     22 N         -72.6107   29.9441  -74.2931 N.am      10 UNK        -0.4509 
     23 C         -71.6708   30.2242  -75.2036 C.2       10 UNK         0.4899 
     24 O         -70.7169   30.9774  -74.9970 O.2       10 UNK        -0.4839 
     25 CA        -71.8308   29.5320  -76.5688 C.3       9 UNK         0.0222 
     26 CB        -70.7132   29.8877  -77.5723 C.3       9 UNK        -0.1966 
     27 N         -71.9717   28.0794  -76.4293 N.am      9 UNK        -0.4218 
     28 C         -71.0913   27.2072  -75.9119 C.2       9 UNK         0.5020 
     29 O         -69.9645   27.5123  -75.5190 O.2       9 UNK        -0.5274 
     30 CA        -71.5370   25.7339  -75.8061 C.3       8 UNK         0.0270 
     31 CB        -71.8799   25.3897  -74.3481 C.3       8 UNK        -0.1976 
     32 N         -72.6785   25.3989  -76.6651 N.am      8 UNK        -0.4313 
     33 C         -72.6247   25.3303  -78.0035 C.2       8 UNK         0.5041 
     34 O         -71.5855   25.4463  -78.6543 O.2       8 UNK        -0.5577 
     35 CA        -73.9585   25.1425  -78.7445 C.3       7 UNK         0.0284 
     36 CB        -74.3226   23.6521  -78.8378 C.3       7 UNK        -0.1958 
     37 N         -75.0602   25.8806  -78.1212 N.am      7 UNK        -0.4454 
     38 C         -75.1509   27.2165  -78.0464 C.2       7 UNK         0.5089 
     39 O         -74.3317   27.9881  -78.5432 O.2       7 UNK        -0.5125 
     40 CA        -76.3175   27.7872  -77.2228 C.3       6 UNK         0.0408 
     41 CB        -77.6317   27.7619  -78.0189 C.3       6 UNK        -0.1791 
     42 N         -76.4808   27.0751  -75.9536 N.am      6 UNK        -0.4762 
     43 C         -75.6160   27.1557  -74.9309 C.2       6 UNK         0.5007 
     44 O         -74.6322   27.8976  -74.9304 O.2       6 UNK        -0.5032 
     45 CA        -75.8660   26.2463  -73.7104 C.3       5 UNK         0.0783 
     46 C46       -76.5519   27.0342  -72.5743 C.3       11 UNK        -0.0857 
     47 S47       -76.2211   26.3308  -70.9200 S.3       11 UNK        -0.2512 
     48 C48       -77.2726   27.3108  -69.7780 C.3       11 UNK         0.0225 
     49 N         -76.6068   25.0316  -74.0662 N.am      5 UNK        -0.4615 
     50 C         -76.0820   24.0171  -74.7621 C.2       4 UNK         0.5053 
     51 O         -74.9233   24.0092  -75.1817 O.2       4 UNK        -0.5105 
     52 CA        -77.0142   22.8319  -75.0706 C.3       4 UNK         0.0263 
     53 CB        -77.3953   22.0781  -73.7856 C.3       4 UNK        -0.1981 
     54 N         -78.2310   23.1889  -75.8117 N.am      4 UNK        -0.4224 
     55 C         -78.2692   23.8259  -76.9887 C.2       3 UNK         0.4895 
     56 O         -77.2725   24.2925  -77.5354 O.2       3 UNK        -0.5091 
     57 CA        -79.6203   23.9737  -77.7136 C.3       3 UNK         0.0250 
     58 CB        -79.8166   22.8292  -78.7267 C.3       3 UNK        -0.1996 
     59 N         -80.8067   24.1398  -76.8638 N.am      3 UNK        -0.4254 
     60 C         -81.3829   23.2728  -76.0217 C.2       2 UNK         0.5004 
     61 O         -80.9172   22.1651  -75.7490 O.2       2 UNK        -0.5226 
     62 CA        -82.6780   23.7607  -75.3420 C.3       2 UNK         0.0269 
     63 CB        -83.4345   22.6235  -74.6307 C.3       2 UNK        -0.1926 
     64 N         -82.3842   24.8127  -74.3692 N.am      2 UNK        -0.4687 
     65 C         -82.0441   26.0780  -74.6584 C.2       1 UNK         0.5165 
     66 O         -82.1115   26.5397  -75.7998 O.2       1 UNK        -0.5079 
     67 H67       -80.2499   24.9813  -70.1963 H         1 UNK         0.0900 
     68 H68       -80.0659   23.5029  -71.1485 H         1 UNK         0.0900 
     69 H69       -78.6700   24.5352  -70.8427 H         1 UNK         0.0900 
     70 H70       -81.6250   26.2314  -71.5041 H         1 UNK         0.2959 
     71 H71       -82.4117   27.4718  -73.1299 H         1 UNK         0.1079 
     72 H72       -80.1363   27.8667  -74.9624 H         1 UNK         0.0837 
     73 H73       -79.5490   27.9261  -73.3579 H         1 UNK         0.0837 
     74 H74       -81.2501   31.0715  -71.7912 H         1 UNK         0.0685 
     75 H75       -81.5471   29.3897  -71.4460 H         1 UNK         0.0685 
     76 H76       -79.7594   27.9701  -70.6768 H         1 UNK         0.1434 
     77 H77       -75.8202   29.5725  -70.1906 H         1 UNK         0.1329 
     78 H78       -78.8256   31.8443  -72.2504 H         1 UNK         0.1335 
     79 H79       -75.5708   32.1050  -70.6403 H         1 UNK         0.0680 
     80 H80       -76.6964   32.8689  -71.7298 H         1 UNK         0.0680 
     81 H81       -74.3601   29.3157  -72.2859 H         1 UNK         0.1032 
     82 H82       -73.8563   30.5488  -71.1584 H         1 UNK         0.1032 
     83 H83       -72.2300   31.4243  -72.8787 H         1 UNK         0.0461 
     84 H84       -70.0049   29.6466  -70.7762 H         1 UNK         0.3453 
     85 H85       -70.6502   31.1880  -71.2768 H         1 UNK         0.3453 
     86 H86       -73.3418   29.2778  -74.5284 H         1 UNK         0.2984 
     87 H87       -72.7730   29.8895  -76.9869 H         1 UNK         0.0554 
     88 H88       -70.6817   30.9625  -77.7542 H         1 UNK         0.0847 
     89 H89       -70.8760   29.4006  -78.5337 H         1 UNK         0.0847 
     90 H90       -69.7285   29.5920  -77.2089 H         1 UNK         0.0847 
     91 H91       -72.8749   27.7150  -76.7030 H         1 UNK         0.3141 
     92 H92       -70.6933   25.1122  -76.1131 H         1 UNK         0.0743 
     93 H93       -71.0068   25.5122  -73.7057 H         1 UNK         0.0784 
     94 H94       -72.6569   26.0449  -73.9558 H         1 UNK         0.0784 
     95 H95       -72.2182   24.3583  -74.2451 H         1 UNK         0.0784 
     96 H96       -73.5605   25.1952  -76.2046 H         1 UNK         0.3213 
     97 H97       -73.8312   25.5280  -79.7583 H         1 UNK         0.0855 
     98 H98       -74.4966   23.2165  -77.8530 H         1 UNK         0.0814 
     99 H99       -73.5225   23.0824  -79.3122 H         1 UNK         0.0814 
    100 H100      -75.2245   23.5019  -79.4315 H         1 UNK         0.0814 
    101 H101      -75.8167   25.3180  -77.7319 H         1 UNK         0.3105 
    102 H102      -76.0875   28.8305  -76.9950 H         1 UNK         0.0547 
    103 H103      -77.5413   28.3538  -78.9305 H         1 UNK         0.0837 
    104 H104      -78.4551   28.1822  -77.4413 H         1 UNK         0.0837 
    105 H105      -77.9109   26.7525  -78.3179 H         1 UNK         0.0837 
    106 H106      -77.2401   26.4124  -75.8876 H         1 UNK         0.3020 
    107 H107      -74.8793   25.9416  -73.3570 H         1 UNK         0.1245 
    108 H108      -77.6252   27.0821  -72.7377 H         1 UNK         0.0781 
    109 H109      -76.2051   28.0665  -72.5659 H         1 UNK         0.0781 
    110 H110      -76.7147   27.5001  -68.8599 H         1 UNK         0.0836 
    111 H111      -78.1299   26.7028  -69.4862 H         1 UNK         0.0836 
    112 H112      -77.5846   24.9861  -73.7781 H         1 UNK         0.3022 
    113 H113      -76.4509   22.1438  -75.7043 H         1 UNK         0.0747 
    114 H114      -76.5071   21.7999  -73.2165 H         1 UNK         0.0793 
    115 H115      -78.0263   22.6813  -73.1323 H         1 UNK         0.0793 
    116 H116      -77.9351   21.1585  -74.0125 H         1 UNK         0.0793 
    117 H117      -79.1105   22.8210  -75.4617 H         1 UNK         0.3047 
    118 H118      -79.5531   24.8995  -78.2866 H         1 UNK         0.0822 
    119 H119      -80.7191   22.9745  -79.3203 H         1 UNK         0.0807 
    120 H120      -79.8895   21.8580  -78.2362 H         1 UNK         0.0807 
    121 H121      -78.9775   22.7769  -79.4219 H         1 UNK         0.0807 
    122 H122      -81.2373   25.0585  -76.9103 H         1 UNK         0.2946 
    123 H123      -83.3305   24.1641  -76.1202 H         1 UNK         0.1144 
    124 H124      -82.8463   22.1879  -73.8218 H         1 UNK         0.0793 
    125 H125      -83.6754   21.8202  -75.3284 H         1 UNK         0.0793 
    126 H126      -84.3754   22.9769  -74.2085 H         1 UNK         0.0793 
    127 H127      -82.2743   24.5144  -73.4111 H         1 UNK         0.2896 
@<TRIPOS>BOND
     1    1    2 1    
     2    1   67 1    
     3    1   68 1    
     4    1   69 1    
     5    2    3 2    
     6    2    4 am   BACKBONE|DICT|INTERRES
     7    4    5 1    
     8    4   70 1    
     9    5    6 1    
    10    5   65 1    
    11    5   71 1    
    12    6    7 1    
    13    6   72 1    
    14    6   73 1    
    15    7    8 1    
    16    8    9 1    
    17    8   74 1    
    18    8   75 1    
    19    9   10 ar   
    20    9   14 ar   
    21   10   11 ar   
    22   10   76 1    
    23   11   12 ar   
    24   11   48 1    
    25   12   13 ar   
    26   12   77 1    
    27   13   14 ar   
    28   13   15 1    
    29   14   78 1    
    30   15   16 1    
    31   15   79 1    
    32   15   80 1    
    33   16   17 1    
    34   17   18 1    
    35   17   81 1    
    36   17   82 1    
    37   18   19 1    
    38   18   22 1    
    39   18   83 1    
    40   19   20 am   BACKBONE|DICT|INTERRES
    41   19   21 2    
    42   20   84 1    
    43   20   85 1    
    44   22   23 am   BACKBONE|DICT|INTERRES
    45   22   86 1    
    46   23   24 2    
    47   23   25 1    
    48   25   26 1    
    49   25   27 1    
    50   25   87 1    
    51   26   88 1    
    52   26   89 1    
    53   26   90 1    
    54   27   28 am   BACKBONE|DICT|INTERRES
    55   27   91 1    
    56   28   29 2    
    57   28   30 1    
    58   30   31 1    
    59   30   32 1    
    60   30   92 1    
    61   31   93 1    
    62   31   94 1    
    63   31   95 1    
    64   32   33 am   BACKBONE|DICT|INTERRES
    65   32   96 1    
    66   33   34 2    
    67   33   35 1    
    68   35   36 1    
    69   35   37 1    
    70   35   97 1    
    71   36   98 1    
    72   36   99 1    
    73   36  100 1    
    74   37   38 am   BACKBONE|DICT|INTERRES
    75   37  101 1    
    76   38   39 2    
    77   38   40 1    
    78   40   41 1    
    79   40   42 1    
    80   40  102 1    
    81   41  103 1    
    82   41  104 1    
    83   41  105 1    
    84   42   43 am   BACKBONE|DICT|INTERRES
    85   42  106 1    
    86   43   44 2    
    87   43   45 1    
    88   45   46 1    
    89   45   49 1    
    90   45  107 1    
    91   46   47 1    
    92   46  108 1    
    93   46  109 1    
    94   47   48 1    
    95   48  110 1    
    96   48  111 1    
    97   49   50 am   BACKBONE|DICT|INTERRES
    98   49  112 1    
    99   50   51 2    
   100   50   52 1    
   101   52   53 1    
   102   52   54 1    
   103   52  113 1    
   104   53  114 1    
   105   53  115 1    
   106   53  116 1    
   107   54   55 am   BACKBONE|DICT|INTERRES
   108   54  117 1    
   109   55   56 2    
   110   55   57 1    
   111   57   58 1    
   112   57   59 1    
   113   57  118 1    
   114   58  119 1    
   115   58  120 1    
   116   58  121 1    
   117   59   60 am   BACKBONE|DICT|INTERRES
   118   59  122 1    
   119   60   61 2    
   120   60   62 1    
   121   62   63 1    
   122   62   64 1    
   123   62  123 1    
   124   63  124 1    
   125   63  125 1    
   126   63  126 1    
   127   64   65 am   BACKBONE|DICT|INTERRES
   128   64  127 1    
   129   65   66 2    
@<TRIPOS>SUBSTRUCTURE
     1 UNK         1 GROUP             0       ****    0 ROOT    
