@<TRIPOS>MOLECULE
3R135
127   129    1
SMALL
USER_CHARGES


@<TRIPOS>ATOM
      1 CA        -85.0019   27.7293  -72.9253 C.3       0 UNK        -0.1998 
      2 C         -83.6938   26.9600  -73.0329 C.2       0 UNK         0.4909 
      3 O         -83.4677   26.2737  -74.0299 O.2       0 UNK        -0.5240 
      4 N         -82.8276   27.0755  -72.0182 N.am      1 UNK        -0.4739 
      5 CA        -81.5511   26.3624  -71.9245 C.3       1 UNK         0.0864 
      6 C6        -80.6286   27.0370  -70.8743 C.3       11 UNK        -0.0881 
      7 S7        -78.9723   26.2926  -70.6551 S.3       11 UNK        -0.2682 
      8 C8        -78.1924   26.5024  -72.2865 C.3       11 UNK         0.0289 
      9 C9        -77.9661   27.9603  -72.6565 C.ar      11 UNK        -0.0687 
     10 C10       -78.8632   28.6226  -73.5009 C.ar      11 UNK        -0.0823 
     11 C11       -78.6252   29.9430  -73.8938 C.ar      11 UNK        -0.0830 
     12 C12       -77.4893   30.6057  -73.4234 C.ar      11 UNK        -0.1021 
     13 C13       -76.5810   29.9516  -72.5873 C.ar      11 UNK        -0.0753 
     14 C14       -76.8279   28.6314  -72.1996 C.ar      11 UNK        -0.0933 
     15 C15       -75.3117   30.6623  -72.1487 C.3       11 UNK         0.0166 
     16 S16       -74.1708   30.8050  -73.5546 S.3       11 UNK        -0.2615 
     17 C17       -72.6751   31.5040  -72.7733 C.3       11 UNK        -0.0865 
     18 CA        -71.5713   30.4477  -72.4867 C.3       10 UNK         0.0862 
     19 C         -71.7987   29.7070  -71.1345 C.2       10 UNK         0.5551 
     20 N         -71.8451   28.3814  -71.0836 N.am      10 UNK        -0.7319 
     21 O         -71.9236   30.3559  -70.0988 O.2       10 UNK        -0.5018 
     22 N         -71.3607   29.5739  -73.6500 N.am      10 UNK        -0.4509 
     23 C         -70.2418   28.9060  -73.9445 C.2       10 UNK         0.4899 
     24 O         -69.1862   29.0262  -73.3205 O.2       10 UNK        -0.4839 
     25 CA        -70.3429   27.9276  -75.1341 C.3       9 UNK         0.0222 
     26 CB        -69.1506   26.9509  -75.2050 C.3       9 UNK        -0.1966 
     27 N         -71.6124   27.1842  -75.1732 N.am      9 UNK        -0.4218 
     28 C         -72.1297   26.4127  -74.2017 C.2       9 UNK         0.5020 
     29 O         -71.6162   26.2719  -73.0912 O.2       9 UNK        -0.5274 
     30 CA        -73.4509   25.6791  -74.4978 C.3       8 UNK         0.0270 
     31 CB        -74.6332   26.4458  -73.8844 C.3       8 UNK        -0.1976 
     32 N         -73.7134   25.4598  -75.9211 N.am      8 UNK        -0.4313 
     33 C         -72.9712   24.7101  -76.7474 C.2       8 UNK         0.5041 
     34 O         -71.9796   24.0705  -76.3952 O.2       8 UNK        -0.5577 
     35 CA        -73.3978   24.6857  -78.2240 C.3       7 UNK         0.0284 
     36 CB        -74.3765   23.5287  -78.4828 C.3       7 UNK        -0.1958 
     37 N         -74.0001   25.9498  -78.6608 N.am      7 UNK        -0.4454 
     38 C         -73.3245   27.0929  -78.8487 C.2       7 UNK         0.5089 
     39 O         -72.1115   27.2085  -78.6736 O.2       7 UNK        -0.5125 
     40 CA        -74.1436   28.3175  -79.2947 C.3       6 UNK         0.0408 
     41 CB        -74.3249   28.3176  -80.8208 C.3       6 UNK        -0.1791 
     42 N         -75.4552   28.3893  -78.6453 N.am      6 UNK        -0.4762 
     43 C         -75.6415   28.7074  -77.3551 C.2       6 UNK         0.5007 
     44 O         -74.7265   29.0210  -76.5946 O.2       6 UNK        -0.5032 
     45 CA        -77.0864   28.6109  -76.8189 C.3       5 UNK         0.0783 
     46 C46       -77.8429   29.9515  -77.0159 C.3       11 UNK        -0.0857 
     47 S47       -79.5963   29.8652  -76.4986 S.3       11 UNK        -0.2512 
     48 C48       -79.5745   30.6469  -74.8523 C.3       11 UNK         0.0225 
     49 N         -77.8288   27.4685  -77.3723 N.am      5 UNK        -0.4615 
     50 C         -77.4753   26.1863  -77.2373 C.2       4 UNK         0.5053 
     51 O         -76.4064   25.8201  -76.7459 O.2       4 UNK        -0.5105 
     52 CA        -78.4601   25.1354  -77.7755 C.3       4 UNK         0.0263 
     53 CB        -78.1568   24.8190  -79.2490 C.3       4 UNK        -0.1981 
     54 N         -78.3829   23.9026  -76.9876 N.am      4 UNK        -0.4224 
     55 C         -78.7903   23.8093  -75.7156 C.2       3 UNK         0.4895 
     56 O         -79.4186   24.6980  -75.1306 O.2       3 UNK        -0.5091 
     57 CA        -78.3901   22.5284  -74.9601 C.3       3 UNK         0.0250 
     58 CB        -76.8798   22.5349  -74.6599 C.3       3 UNK        -0.1996 
     59 N         -79.1181   22.4576  -73.6941 N.am      3 UNK        -0.4254 
     60 C         -80.3863   22.0434  -73.5704 C.2       2 UNK         0.5004 
     61 O         -80.9950   21.3948  -74.4219 O.2       2 UNK        -0.5226 
     62 CA        -81.1177   22.5509  -72.3260 C.3       2 UNK         0.0269 
     63 CB        -80.5123   21.9872  -71.0246 C.3       2 UNK        -0.1926 
     64 N         -81.0505   24.0111  -72.3632 N.am      2 UNK        -0.4687 
     65 C         -81.7910   24.8619  -71.6474 C.2       1 UNK         0.5165 
     66 O         -82.6228   24.5152  -70.8045 O.2       1 UNK        -0.5079 
     67 H67       -85.0619   28.3053  -72.0021 H         1 UNK         0.0900 
     68 H68       -85.8453   27.0397  -72.9500 H         1 UNK         0.0900 
     69 H69       -85.1011   28.4197  -73.7625 H         1 UNK         0.0900 
     70 H70       -83.0832   27.6261  -71.2108 H         1 UNK         0.2959 
     71 H71       -81.0734   26.4479  -72.9018 H         1 UNK         0.1079 
     72 H72       -80.4914   28.0901  -71.1249 H         1 UNK         0.0837 
     73 H73       -81.1161   27.0308  -69.8976 H         1 UNK         0.0837 
     74 H74       -78.7900   26.0057  -73.0473 H         1 UNK         0.0685 
     75 H75       -77.2358   25.9789  -72.2756 H         1 UNK         0.0685 
     76 H76       -79.7321   28.1052  -73.8823 H         1 UNK         0.1434 
     77 H77       -77.2879   31.6219  -73.7342 H         1 UNK         0.1329 
     78 H78       -76.1230   28.1165  -71.5615 H         1 UNK         0.1335 
     79 H79       -75.5537   31.6557  -71.7681 H         1 UNK         0.0680 
     80 H80       -74.8266   30.1201  -71.3357 H         1 UNK         0.0680 
     81 H81       -72.9434   32.0663  -71.8766 H         1 UNK         0.1032 
     82 H82       -72.2759   32.2480  -73.4641 H         1 UNK         0.1032 
     83 H83       -70.6440   31.0045  -72.3387 H         1 UNK         0.0461 
     84 H84       -71.9855   27.9336  -70.1927 H         1 UNK         0.3453 
     85 H85       -71.7162   27.8108  -71.9132 H         1 UNK         0.3453 
     86 H86       -72.1867   29.4052  -74.2074 H         1 UNK         0.2984 
     87 H87       -70.3218   28.5408  -76.0362 H         1 UNK         0.0554 
     88 H88       -69.2328   26.2879  -76.0664 H         1 UNK         0.0847 
     89 H89       -69.0840   26.3305  -74.3105 H         1 UNK         0.0847 
     90 H90       -68.2066   27.4890  -75.2999 H         1 UNK         0.0847 
     91 H91       -72.1273   27.2426  -76.0421 H         1 UNK         0.3141 
     92 H92       -73.3933   24.6984  -74.0215 H         1 UNK         0.0743 
     93 H93       -74.7328   27.4453  -74.3101 H         1 UNK         0.0784 
     94 H94       -75.5737   25.9198  -74.0475 H         1 UNK         0.0784 
     95 H95       -74.5060   26.5621  -72.8074 H         1 UNK         0.0784 
     96 H96       -74.5790   25.8502  -76.2880 H         1 UNK         0.3213 
     97 H97       -72.5010   24.5140  -78.8236 H         1 UNK         0.0855 
     98 H98       -75.2867   23.6278  -77.8912 H         1 UNK         0.0814 
     99 H99       -73.9231   22.5722  -78.2191 H         1 UNK         0.0814 
    100 H100      -74.6590   23.4727  -79.5341 H         1 UNK         0.0814 
    101 H101      -75.0039   25.9641  -78.7633 H         1 UNK         0.3105 
    102 H102      -73.5783   29.2119  -79.0233 H         1 UNK         0.0547 
    103 H103      -73.3590   28.2854  -81.3271 H         1 UNK         0.0837 
    104 H104      -74.9000   27.4564  -81.1631 H         1 UNK         0.0837 
    105 H105      -74.8353   29.2191  -81.1598 H         1 UNK         0.0837 
    106 H106      -76.2623   28.1449  -79.2012 H         1 UNK         0.3020 
    107 H107      -76.9967   28.4316  -75.7449 H         1 UNK         0.1245 
    108 H108      -77.8286   30.2454  -78.0672 H         1 UNK         0.0781 
    109 H109      -77.3438   30.7558  -76.4719 H         1 UNK         0.0781 
    110 H110      -80.5829   30.6262  -74.4367 H         1 UNK         0.0836 
    111 H111      -79.3107   31.6999  -74.9627 H         1 UNK         0.0836 
    112 H112      -78.7242   27.6914  -77.7829 H         1 UNK         0.3022 
    113 H113      -79.4756   25.5307  -77.7003 H         1 UNK         0.0747 
    114 H114      -78.8620   24.0907  -79.6500 H         1 UNK         0.0793 
    115 H115      -78.2351   25.7149  -79.8664 H         1 UNK         0.0793 
    116 H116      -77.1515   24.4188  -79.3820 H         1 UNK         0.0793 
    117 H117      -77.8512   23.1433  -77.3864 H         1 UNK         0.3047 
    118 H118      -78.6349   21.6600  -75.5757 H         1 UNK         0.0822 
    119 H119      -76.2923   22.5390  -75.5790 H         1 UNK         0.0807 
    120 H120      -76.5840   21.6514  -74.0940 H         1 UNK         0.0807 
    121 H121      -76.5848   23.4151  -74.0864 H         1 UNK         0.0807 
    122 H122      -78.7211   22.9860  -72.9313 H         1 UNK         0.2946 
    123 H123      -82.1634   22.2425  -72.3973 H         1 UNK         0.1144 
    124 H124      -80.4829   20.8971  -71.0492 H         1 UNK         0.0793 
    125 H125      -81.1056   22.2720  -70.1557 H         1 UNK         0.0793 
    126 H126      -79.4941   22.3404  -70.8589 H         1 UNK         0.0793 
    127 H127      -80.4535   24.3861  -73.0925 H         1 UNK         0.2896 
@<TRIPOS>BOND
     1    1    2 1    
     2    1   67 1    
     3    1   68 1    
     4    1   69 1    
     5    2    3 2    
     6    2    4 am   BACKBONE|DICT|INTERRES
     7    4    5 1    
     8    4   70 1    
     9    5    6 1    
    10    5   65 1    
    11    5   71 1    
    12    6    7 1    
    13    6   72 1    
    14    6   73 1    
    15    7    8 1    
    16    8    9 1    
    17    8   74 1    
    18    8   75 1    
    19    9   10 ar   
    20    9   14 ar   
    21   10   11 ar   
    22   10   76 1    
    23   11   12 ar   
    24   11   48 1    
    25   12   13 ar   
    26   12   77 1    
    27   13   14 ar   
    28   13   15 1    
    29   14   78 1    
    30   15   16 1    
    31   15   79 1    
    32   15   80 1    
    33   16   17 1    
    34   17   18 1    
    35   17   81 1    
    36   17   82 1    
    37   18   19 1    
    38   18   22 1    
    39   18   83 1    
    40   19   20 am   BACKBONE|DICT|INTERRES
    41   19   21 2    
    42   20   84 1    
    43   20   85 1    
    44   22   23 am   BACKBONE|DICT|INTERRES
    45   22   86 1    
    46   23   24 2    
    47   23   25 1    
    48   25   26 1    
    49   25   27 1    
    50   25   87 1    
    51   26   88 1    
    52   26   89 1    
    53   26   90 1    
    54   27   28 am   BACKBONE|DICT|INTERRES
    55   27   91 1    
    56   28   29 2    
    57   28   30 1    
    58   30   31 1    
    59   30   32 1    
    60   30   92 1    
    61   31   93 1    
    62   31   94 1    
    63   31   95 1    
    64   32   33 am   BACKBONE|DICT|INTERRES
    65   32   96 1    
    66   33   34 2    
    67   33   35 1    
    68   35   36 1    
    69   35   37 1    
    70   35   97 1    
    71   36   98 1    
    72   36   99 1    
    73   36  100 1    
    74   37   38 am   BACKBONE|DICT|INTERRES
    75   37  101 1    
    76   38   39 2    
    77   38   40 1    
    78   40   41 1    
    79   40   42 1    
    80   40  102 1    
    81   41  103 1    
    82   41  104 1    
    83   41  105 1    
    84   42   43 am   BACKBONE|DICT|INTERRES
    85   42  106 1    
    86   43   44 2    
    87   43   45 1    
    88   45   46 1    
    89   45   49 1    
    90   45  107 1    
    91   46   47 1    
    92   46  108 1    
    93   46  109 1    
    94   47   48 1    
    95   48  110 1    
    96   48  111 1    
    97   49   50 am   BACKBONE|DICT|INTERRES
    98   49  112 1    
    99   50   51 2    
   100   50   52 1    
   101   52   53 1    
   102   52   54 1    
   103   52  113 1    
   104   53  114 1    
   105   53  115 1    
   106   53  116 1    
   107   54   55 am   BACKBONE|DICT|INTERRES
   108   54  117 1    
   109   55   56 2    
   110   55   57 1    
   111   57   58 1    
   112   57   59 1    
   113   57  118 1    
   114   58  119 1    
   115   58  120 1    
   116   58  121 1    
   117   59   60 am   BACKBONE|DICT|INTERRES
   118   59  122 1    
   119   60   61 2    
   120   60   62 1    
   121   62   63 1    
   122   62   64 1    
   123   62  123 1    
   124   63  124 1    
   125   63  125 1    
   126   63  126 1    
   127   64   65 am   BACKBONE|DICT|INTERRES
   128   64  127 1    
   129   65   66 2    
@<TRIPOS>SUBSTRUCTURE
     1 UNK         1 GROUP             0       ****    0 ROOT    
