@<TRIPOS>MOLECULE
3R135
127   129    1
SMALL
USER_CHARGES


@<TRIPOS>ATOM
      1 CA        -84.4139   31.1417  -73.1861 C.3       0 UNK        -0.1998 
      2 C         -82.9789   31.0489  -73.6820 C.2       0 UNK         0.4909 
      3 O         -82.5323   31.9180  -74.4308 O.2       0 UNK        -0.5240 
      4 N         -82.2545   29.9981  -73.2743 N.am      1 UNK        -0.4739 
      5 CA        -80.8475   29.7586  -73.6333 C.3       1 UNK         0.0864 
      6 C6        -80.1454   28.8185  -72.6212 C.3       11 UNK        -0.0881 
      7 S7        -80.1558   29.5241  -70.9405 S.3       11 UNK        -0.2682 
      8 C8        -79.5693   28.1138  -69.9438 C.3       11 UNK         0.0289 
      9 C9        -78.0828   27.8131  -70.1174 C.ar      11 UNK        -0.0687 
     10 C10       -77.6489   26.4872  -70.2314 C.ar      11 UNK        -0.0823 
     11 C11       -76.2873   26.1803  -70.3373 C.ar      11 UNK        -0.0830 
     12 C12       -75.3581   27.2280  -70.3348 C.ar      11 UNK        -0.1021 
     13 C13       -75.7758   28.5571  -70.2415 C.ar      11 UNK        -0.0753 
     14 C14       -77.1361   28.8435  -70.1141 C.ar      11 UNK        -0.0933 
     15 C15       -74.7438   29.6721  -70.2765 C.3       11 UNK         0.0166 
     16 S16       -74.1190   29.9230  -71.9673 S.3       11 UNK        -0.2615 
     17 C17       -75.2379   31.2143  -72.6166 C.3       11 UNK        -0.0865 
     18 CA        -76.5571   30.7061  -73.2799 C.3       10 UNK         0.0862 
     19 C         -77.3859   31.8878  -73.8719 C.2       10 UNK         0.5551 
     20 N         -78.1239   31.7044  -74.9583 N.am      10 UNK        -0.7319 
     21 O         -77.3783   32.9889  -73.3267 O.2       10 UNK        -0.5018 
     22 N         -76.3675   29.5613  -74.1924 N.am      10 UNK        -0.4509 
     23 C         -75.5960   29.5530  -75.2842 C.2       10 UNK         0.4899 
     24 O         -74.9785   30.5325  -75.7099 O.2       10 UNK        -0.4839 
     25 CA        -75.4522   28.2137  -76.0130 C.3       9 UNK         0.0222 
     26 CB        -76.2950   28.1702  -77.2997 C.3       9 UNK        -0.1966 
     27 N         -74.0323   28.0589  -76.3105 N.am      9 UNK        -0.4218 
     28 C         -73.3886   26.9025  -76.4838 C.2       9 UNK         0.5020 
     29 O         -73.9564   25.8147  -76.5949 O.2       9 UNK        -0.5274 
     30 CA        -71.8543   26.9846  -76.4910 C.3       8 UNK         0.0270 
     31 CB        -71.3284   27.4532  -75.1208 C.3       8 UNK        -0.1976 
     32 N         -71.2629   25.6781  -76.7841 N.am      8 UNK        -0.4313 
     33 C         -70.7625   25.3113  -77.9711 C.2       8 UNK         0.5041 
     34 O         -70.7465   26.0478  -78.9592 O.2       8 UNK        -0.5577 
     35 CA        -70.1392   23.9061  -78.0895 C.3       7 UNK         0.0284 
     36 CB        -68.6059   24.0062  -78.1645 C.3       7 UNK        -0.1958 
     37 N         -70.4985   23.0080  -76.9896 N.am      7 UNK        -0.4454 
     38 C         -71.6538   22.3375  -76.9049 C.2       7 UNK         0.5089 
     39 O         -72.5299   22.3729  -77.7700 O.2       7 UNK        -0.5125 
     40 CA        -71.8965   21.4946  -75.6367 C.3       6 UNK         0.0408 
     41 CB        -70.6430   21.2694  -74.7590 C.3       6 UNK        -0.1791 
     42 N         -72.9999   22.0604  -74.8542 N.am      6 UNK        -0.4762 
     43 C         -73.0491   23.2877  -74.3129 C.2       6 UNK         0.5007 
     44 O         -72.1023   24.0782  -74.3208 O.2       6 UNK        -0.5032 
     45 CA        -74.4273   23.7210  -73.7877 C.3       5 UNK         0.0783 
     46 C46       -74.3971   24.9332  -72.8213 C.3       11 UNK        -0.0857 
     47 S47       -74.1884   24.4047  -71.0900 S.3       11 UNK        -0.2512 
     48 C48       -75.8647   24.7098  -70.4213 C.3       11 UNK         0.0225 
     49 N         -75.2159   24.0224  -74.9726 N.am      5 UNK        -0.4615 
     50 C         -76.3735   23.4607  -75.3130 C.2       4 UNK         0.5053 
     51 O         -76.9537   22.6030  -74.6433 O.2       4 UNK        -0.5105 
     52 CA        -76.9543   23.9093  -76.6621 C.3       4 UNK         0.0263 
     53 CB        -76.5350   22.9399  -77.7788 C.3       4 UNK        -0.1981 
     54 N         -78.4124   23.9976  -76.6129 N.am      4 UNK        -0.4224 
     55 C         -79.0816   24.9317  -75.9271 C.2       3 UNK         0.4895 
     56 O         -78.5445   25.8431  -75.2920 O.2       3 UNK        -0.5091 
     57 CA        -80.6134   24.8111  -75.9320 C.3       3 UNK         0.0250 
     58 CB        -81.1054   24.1555  -74.6312 C.3       3 UNK        -0.1996 
     59 N         -81.2357   26.1257  -76.0729 N.am      3 UNK        -0.4254 
     60 C         -81.2136   26.8661  -77.1900 C.2       2 UNK         0.5004 
     61 O         -80.7724   26.4676  -78.2688 O.2       2 UNK        -0.5226 
     62 CA        -81.7851   28.2912  -77.0915 C.3       2 UNK         0.0269 
     63 CB        -83.2230   28.3359  -77.6340 C.3       2 UNK        -0.1926 
     64 N         -81.7714   28.8250  -75.7260 N.am      2 UNK        -0.4687 
     65 C         -80.6718   29.2388  -75.0778 C.2       1 UNK         0.5165 
     66 O         -79.5460   29.2236  -75.5779 O.2       1 UNK        -0.5079 
     67 H67       -85.1035   31.1421  -74.0299 H         1 UNK         0.0900 
     68 H68       -84.5581   32.0661  -72.6276 H         1 UNK         0.0900 
     69 H69       -84.6753   30.3081  -72.5345 H         1 UNK         0.0900 
     70 H70       -82.6635   29.3279  -72.6383 H         1 UNK         0.2959 
     71 H71       -80.3337   30.7214  -73.5975 H         1 UNK         0.1079 
     72 H72       -80.6279   27.8394  -72.6041 H         1 UNK         0.0837 
     73 H73       -79.1059   28.6440  -72.9057 H         1 UNK         0.0837 
     74 H74       -79.7515   28.3362  -68.8917 H         1 UNK         0.0685 
     75 H75       -80.1753   27.2381  -70.1818 H         1 UNK         0.0685 
     76 H76       -78.3751   25.6855  -70.2197 H         1 UNK         0.1434 
     77 H77       -74.2997   27.0247  -70.4127 H         1 UNK         0.1329 
     78 H78       -77.4587   29.8709  -70.0170 H         1 UNK         0.1335 
     79 H79       -75.1507   30.6013  -69.8752 H         1 UNK         0.0680 
     80 H80       -73.9061   29.4042  -69.6309 H         1 UNK         0.0680 
     81 H81       -74.6636   31.7940  -73.3414 H         1 UNK         0.1032 
     82 H82       -75.4672   31.9127  -71.8101 H         1 UNK         0.1032 
     83 H83       -77.1836   30.3168  -72.4790 H         1 UNK         0.0461 
     84 H84       -78.6479   32.4787  -75.3327 H         1 UNK         0.3453 
     85 H85       -78.2122   30.7851  -75.3735 H         1 UNK         0.3453 
     86 H86       -76.8492   28.7126  -73.9339 H         1 UNK         0.2984 
     87 H87       -75.7681   27.4063  -75.3477 H         1 UNK         0.0554 
     88 H88       -77.3572   28.2634  -77.0685 H         1 UNK         0.0847 
     89 H89       -76.1628   27.2280  -77.8313 H         1 UNK         0.0847 
     90 H90       -76.0331   28.9802  -77.9814 H         1 UNK         0.0847 
     91 H91       -73.5041   28.9195  -76.2294 H         1 UNK         0.3141 
     92 H92       -71.5575   27.7156  -77.2460 H         1 UNK         0.0743 
     93 H93       -71.6811   28.4558  -74.8760 H         1 UNK         0.0784 
     94 H94       -71.6501   26.7904  -74.3163 H         1 UNK         0.0784 
     95 H95       -70.2389   27.4868  -75.1072 H         1 UNK         0.0784 
     96 H96       -71.3385   24.9878  -76.0439 H         1 UNK         0.3213 
     97 H97       -70.4958   23.4729  -79.0269 H         1 UNK         0.0855 
     98 H98       -68.2961   24.6379  -78.9983 H         1 UNK         0.0814 
     99 H99       -68.1504   23.0276  -78.3167 H         1 UNK         0.0814 
    100 H100      -68.1838   24.4375  -77.2559 H         1 UNK         0.0814 
    101 H101      -69.8447   22.9385  -76.2230 H         1 UNK         0.3105 
    102 H102      -72.2319   20.5156  -75.9822 H         1 UNK         0.0547 
    103 H103      -69.8428   20.7982  -75.3313 H         1 UNK         0.0837 
    104 H104      -70.2494   22.1946  -74.3375 H         1 UNK         0.0837 
    105 H105      -70.8687   20.6042  -73.9257 H         1 UNK         0.0837 
    106 H106      -73.8506   21.5140  -74.8575 H         1 UNK         0.3020 
    107 H107      -74.8640   22.8665  -73.2649 H         1 UNK         0.1245 
    108 H108      -75.3333   25.4892  -72.8963 H         1 UNK         0.0781 
    109 H109      -73.6226   25.6582  -73.0772 H         1 UNK         0.0781 
    110 H110      -75.9149   24.2829  -69.4188 H         1 UNK         0.0836 
    111 H111      -76.5817   24.1543  -71.0286 H         1 UNK         0.0836 
    112 H112      -74.7771   24.6811  -75.6216 H         1 UNK         0.3022 
    113 H113      -76.5645   24.9012  -76.9021 H         1 UNK         0.0747 
    114 H114      -76.9099   23.2652  -78.7494 H         1 UNK         0.0793 
    115 H115      -75.4477   22.8844  -77.8555 H         1 UNK         0.0793 
    116 H116      -76.9012   21.9288  -77.5961 H         1 UNK         0.0793 
    117 H117      -78.9265   23.2596  -77.0714 H         1 UNK         0.3047 
    118 H118      -80.9245   24.1920  -76.7765 H         1 UNK         0.0822 
    119 H119      -82.1893   24.0384  -74.6294 H         1 UNK         0.0807 
    120 H120      -80.8280   24.7415  -73.7537 H         1 UNK         0.0807 
    121 H121      -80.6720   23.1619  -74.5078 H         1 UNK         0.0807 
    122 H122      -81.5927   26.5518  -75.2316 H         1 UNK         0.2946 
    123 H123      -81.1602   28.9329  -77.7172 H         1 UNK         0.1144 
    124 H124      -83.6143   29.3535  -77.6376 H         1 UNK         0.0793 
    125 H125      -83.8986   27.7169  -77.0422 H         1 UNK         0.0793 
    126 H126      -83.2635   27.9717  -78.6617 H         1 UNK         0.0793 
    127 H127      -82.6580   28.8918  -75.2474 H         1 UNK         0.2896 
@<TRIPOS>BOND
     1    1    2 1    
     2    1   67 1    
     3    1   68 1    
     4    1   69 1    
     5    2    3 2    
     6    2    4 am   BACKBONE|DICT|INTERRES
     7    4    5 1    
     8    4   70 1    
     9    5    6 1    
    10    5   65 1    
    11    5   71 1    
    12    6    7 1    
    13    6   72 1    
    14    6   73 1    
    15    7    8 1    
    16    8    9 1    
    17    8   74 1    
    18    8   75 1    
    19    9   10 ar   
    20    9   14 ar   
    21   10   11 ar   
    22   10   76 1    
    23   11   12 ar   
    24   11   48 1    
    25   12   13 ar   
    26   12   77 1    
    27   13   14 ar   
    28   13   15 1    
    29   14   78 1    
    30   15   16 1    
    31   15   79 1    
    32   15   80 1    
    33   16   17 1    
    34   17   18 1    
    35   17   81 1    
    36   17   82 1    
    37   18   19 1    
    38   18   22 1    
    39   18   83 1    
    40   19   20 am   BACKBONE|DICT|INTERRES
    41   19   21 2    
    42   20   84 1    
    43   20   85 1    
    44   22   23 am   BACKBONE|DICT|INTERRES
    45   22   86 1    
    46   23   24 2    
    47   23   25 1    
    48   25   26 1    
    49   25   27 1    
    50   25   87 1    
    51   26   88 1    
    52   26   89 1    
    53   26   90 1    
    54   27   28 am   BACKBONE|DICT|INTERRES
    55   27   91 1    
    56   28   29 2    
    57   28   30 1    
    58   30   31 1    
    59   30   32 1    
    60   30   92 1    
    61   31   93 1    
    62   31   94 1    
    63   31   95 1    
    64   32   33 am   BACKBONE|DICT|INTERRES
    65   32   96 1    
    66   33   34 2    
    67   33   35 1    
    68   35   36 1    
    69   35   37 1    
    70   35   97 1    
    71   36   98 1    
    72   36   99 1    
    73   36  100 1    
    74   37   38 am   BACKBONE|DICT|INTERRES
    75   37  101 1    
    76   38   39 2    
    77   38   40 1    
    78   40   41 1    
    79   40   42 1    
    80   40  102 1    
    81   41  103 1    
    82   41  104 1    
    83   41  105 1    
    84   42   43 am   BACKBONE|DICT|INTERRES
    85   42  106 1    
    86   43   44 2    
    87   43   45 1    
    88   45   46 1    
    89   45   49 1    
    90   45  107 1    
    91   46   47 1    
    92   46  108 1    
    93   46  109 1    
    94   47   48 1    
    95   48  110 1    
    96   48  111 1    
    97   49   50 am   BACKBONE|DICT|INTERRES
    98   49  112 1    
    99   50   51 2    
   100   50   52 1    
   101   52   53 1    
   102   52   54 1    
   103   52  113 1    
   104   53  114 1    
   105   53  115 1    
   106   53  116 1    
   107   54   55 am   BACKBONE|DICT|INTERRES
   108   54  117 1    
   109   55   56 2    
   110   55   57 1    
   111   57   58 1    
   112   57   59 1    
   113   57  118 1    
   114   58  119 1    
   115   58  120 1    
   116   58  121 1    
   117   59   60 am   BACKBONE|DICT|INTERRES
   118   59  122 1    
   119   60   61 2    
   120   60   62 1    
   121   62   63 1    
   122   62   64 1    
   123   62  123 1    
   124   63  124 1    
   125   63  125 1    
   126   63  126 1    
   127   64   65 am   BACKBONE|DICT|INTERRES
   128   64  127 1    
   129   65   66 2    
@<TRIPOS>SUBSTRUCTURE
     1 UNK         1 GROUP             0       ****    0 ROOT    
