@<TRIPOS>MOLECULE
3R135
127   129    1
SMALL
USER_CHARGES


@<TRIPOS>ATOM
      1 CA        -85.9548   28.1162  -73.8010 C.3       0 UNK        -0.1998 
      2 C         -84.7354   27.2714  -74.1377 C.2       0 UNK         0.4909 
      3 O         -84.8712   26.0769  -74.4055 O.2       0 UNK        -0.5240 
      4 N         -83.5452   27.8830  -74.1366 N.am      1 UNK        -0.4739 
      5 CA        -82.2588   27.2187  -74.3592 C.3       1 UNK         0.0864 
      6 C6        -81.1300   28.2254  -74.7207 C.3       11 UNK        -0.0881 
      7 S7        -81.0993   29.7555  -73.7172 S.3       11 UNK        -0.2682 
      8 C8        -79.3654   30.2953  -73.9247 C.3       11 UNK         0.0289 
      9 C9        -78.3132   29.5441  -73.1033 C.ar      11 UNK        -0.0687 
     10 C10       -78.6343   28.5488  -72.1692 C.ar      11 UNK        -0.0823 
     11 C11       -77.6337   27.8991  -71.4406 C.ar      11 UNK        -0.0830 
     12 C12       -76.2988   28.2579  -71.6377 C.ar      11 UNK        -0.1021 
     13 C13       -75.9589   29.2357  -72.5735 C.ar      11 UNK        -0.0753 
     14 C14       -76.9686   29.8809  -73.2932 C.ar      11 UNK        -0.0933 
     15 C15       -74.4977   29.5595  -72.8300 C.3       11 UNK         0.0166 
     16 S16       -73.9729   31.0463  -71.9205 S.3       11 UNK        -0.2615 
     17 C17       -72.2161   30.6750  -71.5803 C.3       11 UNK        -0.0865 
     18 CA        -71.2530   31.1178  -72.7134 C.3       10 UNK         0.0862 
     19 C         -69.7698   30.9498  -72.2657 C.2       10 UNK         0.5551 
     20 N         -68.9923   30.0394  -72.8424 N.am      10 UNK        -0.7319 
     21 O         -69.3175   31.6650  -71.3752 O.2       10 UNK        -0.5018 
     22 N         -71.5769   30.4477  -73.9798 N.am      10 UNK        -0.4509 
     23 C         -71.1508   30.8202  -75.1917 C.2       10 UNK         0.4899 
     24 O         -70.5237   31.8586  -75.4062 O.2       10 UNK        -0.4839 
     25 CA        -71.4822   29.8649  -76.3580 C.3       9 UNK         0.0222 
     26 CB        -70.4172   29.9119  -77.4736 C.3       9 UNK        -0.1966 
     27 N         -71.7346   28.4733  -75.9497 N.am      9 UNK        -0.4218 
     28 C         -70.8949   27.6467  -75.2998 C.2       9 UNK         0.5020 
     29 O         -69.7818   27.9880  -74.8962 O.2       9 UNK        -0.5274 
     30 CA        -71.3764   26.2107  -75.0076 C.3       8 UNK         0.0270 
     31 CB        -71.7136   26.0560  -73.5155 C.3       8 UNK        -0.1976 
     32 N         -72.5332   25.8041  -75.8112 N.am      8 UNK        -0.4313 
     33 C         -72.4858   25.5577  -77.1302 C.2       8 UNK         0.5041 
     34 O         -71.4359   25.5281  -77.7738 O.2       8 UNK        -0.5577 
     35 CA        -73.8163   25.3373  -77.8790 C.3       7 UNK         0.0284 
     36 CB        -74.0023   23.8467  -78.2064 C.3       7 UNK        -0.1958 
     37 N         -75.0128   25.8315  -77.1883 N.am      7 UNK        -0.4454 
     38 C         -75.2249   27.0880  -76.7710 C.2       7 UNK         0.5089 
     39 O         -74.4308   28.0127  -76.9472 O.2       7 UNK        -0.5125 
     40 CA        -76.5048   27.3424  -75.9572 C.3       6 UNK         0.0408 
     41 CB        -77.6615   27.7371  -76.8859 C.3       6 UNK        -0.1791 
     42 N         -76.9086   26.2148  -75.1079 N.am      6 UNK        -0.4762 
     43 C         -76.1514   25.6470  -74.1537 C.2       6 UNK         0.5007 
     44 O         -75.0009   26.0009  -73.8921 O.2       6 UNK        -0.5032 
     45 CA        -76.7506   24.4178  -73.4436 C.3       5 UNK         0.0783 
     46 C46       -77.8528   24.7843  -72.4153 C.3       11 UNK        -0.0857 
     47 S47       -77.1640   25.2261  -70.7870 S.3       11 UNK        -0.2512 
     48 C48       -77.9970   26.8110  -70.4387 C.3       11 UNK         0.0225 
     49 N         -77.2481   23.4760  -74.4456 N.am      5 UNK        -0.4615 
     50 C         -76.4825   22.6225  -75.1382 C.2       4 UNK         0.5053 
     51 O         -75.2821   22.4559  -74.9255 O.2       4 UNK        -0.5105 
     52 CA        -77.1621   21.8201  -76.2645 C.3       4 UNK         0.0263 
     53 CB        -77.5226   20.4089  -75.7733 C.3       4 UNK        -0.1981 
     54 N         -78.3658   22.4656  -76.7968 N.am      4 UNK        -0.4224 
     55 C         -78.3715   23.6049  -77.5038 C.2       3 UNK         0.4895 
     56 O         -77.3530   24.2086  -77.8366 O.2       3 UNK        -0.5091 
     57 CA        -79.7499   24.2056  -77.8343 C.3       3 UNK         0.0250 
     58 CB        -80.3047   23.6025  -79.1342 C.3       3 UNK        -0.1996 
     59 N         -80.7322   24.0435  -76.7538 N.am      3 UNK        -0.4254 
     60 C         -80.5812   24.5266  -75.5130 C.2       2 UNK         0.5004 
     61 O         -79.5948   25.1688  -75.1495 O.2       2 UNK        -0.5226 
     62 CA        -81.6912   24.1920  -74.5034 C.3       2 UNK         0.0269 
     63 CB        -81.5736   22.7183  -74.0770 C.3       2 UNK        -0.1926 
     64 N         -81.6391   25.0186  -73.2907 N.am      2 UNK        -0.4687 
     65 C         -81.8886   26.3302  -73.1434 C.2       1 UNK         0.5165 
     66 O         -81.8423   26.8511  -72.0288 O.2       1 UNK        -0.5079 
     67 H67       -86.6604   28.1046  -74.6313 H         1 UNK         0.0900 
     68 H68       -85.6881   29.1531  -73.5969 H         1 UNK         0.0900 
     69 H69       -86.4570   27.7156  -72.9208 H         1 UNK         0.0900 
     70 H70       -83.4776   28.8583  -73.8793 H         1 UNK         0.2959 
     71 H71       -82.4015   26.5921  -75.2375 H         1 UNK         0.1079 
     72 H72       -80.1552   27.7389  -74.6605 H         1 UNK         0.0837 
     73 H73       -81.2410   28.5277  -75.7631 H         1 UNK         0.0837 
     74 H74       -79.1060   30.2367  -74.9829 H         1 UNK         0.0685 
     75 H75       -79.3135   31.3509  -73.6547 H         1 UNK         0.0685 
     76 H76       -79.6632   28.2711  -71.9976 H         1 UNK         0.1434 
     77 H77       -75.5212   27.7524  -71.0815 H         1 UNK         0.1329 
     78 H78       -76.7023   30.6418  -74.0144 H         1 UNK         0.1335 
     79 H79       -74.3387   29.7127  -73.8985 H         1 UNK         0.0680 
     80 H80       -73.8814   28.7049  -72.5485 H         1 UNK         0.0680 
     81 H81       -72.0968   29.6123  -71.3613 H         1 UNK         0.1032 
     82 H82       -71.9618   31.1929  -70.6532 H         1 UNK         0.1032 
     83 H83       -71.4002   32.1883  -72.8700 H         1 UNK         0.0461 
     84 H84       -69.3459   29.4345  -73.5765 H         1 UNK         0.3453 
     85 H85       -68.0356   29.9489  -72.5401 H         1 UNK         0.3453 
     86 H86       -72.0704   29.5730  -73.9050 H         1 UNK         0.2984 
     87 H87       -72.4204   30.2251  -76.7824 H         1 UNK         0.0554 
     88 H88       -70.6760   29.2459  -78.2968 H         1 UNK         0.0847 
     89 H89       -69.4330   29.6215  -77.1042 H         1 UNK         0.0847 
     90 H90       -70.3253   30.9162  -77.8889 H         1 UNK         0.0847 
     91 H91       -72.6445   28.1126  -76.2292 H         1 UNK         0.3141 
     92 H92       -70.5485   25.5375  -75.2400 H         1 UNK         0.0743 
     93 H93       -72.5131   26.7307  -73.2092 H         1 UNK         0.0784 
     94 H94       -72.0276   25.0384  -73.2820 H         1 UNK         0.0784 
     95 H95       -70.8452   26.2777  -72.8935 H         1 UNK         0.0784 
     96 H96       -73.4338   25.8026  -75.3425 H         1 UNK         0.3213 
     97 H97       -73.7429   25.8865  -78.8198 H         1 UNK         0.0855 
     98 H98       -74.1215   23.2489  -77.3025 H         1 UNK         0.0814 
     99 H99       -73.1397   23.4530  -78.7459 H         1 UNK         0.0814 
    100 H100      -74.8763   23.6829  -78.8368 H         1 UNK         0.0814 
    101 H101      -75.7724   25.1671  -77.0728 H         1 UNK         0.3105 
    102 H102      -76.2978   28.1837  -75.2973 H         1 UNK         0.0547 
    103 H103      -77.3957   28.6050  -77.4909 H         1 UNK         0.0837 
    104 H104      -77.9206   26.9304  -77.5710 H         1 UNK         0.0837 
    105 H105      -78.5539   28.0004  -76.3214 H         1 UNK         0.0837 
    106 H106      -77.8511   25.8554  -75.2429 H         1 UNK         0.3020 
    107 H107      -75.9346   23.9266  -72.9074 H         1 UNK         0.1245 
    108 H108      -78.5047   25.5772  -72.7859 H         1 UNK         0.0781 
    109 H109      -78.5065   23.9269  -72.2473 H         1 UNK         0.0781 
    110 H110      -79.0755   26.6442  -70.4155 H         1 UNK         0.0836 
    111 H111      -77.7163   27.1449  -69.4390 H         1 UNK         0.0836 
    112 H112      -78.2102   23.6070  -74.7269 H         1 UNK         0.3022 
    113 H113      -76.4408   21.7267  -77.0794 H         1 UNK         0.0747 
    114 H114      -77.9332   19.8004  -76.5794 H         1 UNK         0.0793 
    115 H115      -76.6400   19.8900  -75.3962 H         1 UNK         0.0793 
    116 H116      -78.2544   20.4363  -74.9648 H         1 UNK         0.0793 
    117 H117      -79.2510   22.0335  -76.5762 H         1 UNK         0.3047 
    118 H118      -79.6103   25.2768  -77.9907 H         1 UNK         0.0822 
    119 H119      -81.2334   24.0891  -79.4330 H         1 UNK         0.0807 
    120 H120      -80.5011   22.5341  -79.0355 H         1 UNK         0.0807 
    121 H121      -79.5972   23.7292  -79.9552 H         1 UNK         0.0807 
    122 H122      -81.5668   23.5203  -76.9794 H         1 UNK         0.2946 
    123 H123      -82.6621   24.3362  -74.9828 H         1 UNK         0.1144 
    124 H124      -81.6629   22.0459  -74.9313 H         1 UNK         0.0793 
    125 H125      -82.3636   22.4450  -73.3769 H         1 UNK         0.0793 
    126 H126      -80.6162   22.5102  -73.5968 H         1 UNK         0.0793 
    127 H127      -81.3832   24.5166  -72.4543 H         1 UNK         0.2896 
@<TRIPOS>BOND
     1    1    2 1    
     2    1   67 1    
     3    1   68 1    
     4    1   69 1    
     5    2    3 2    
     6    2    4 am   BACKBONE|DICT|INTERRES
     7    4    5 1    
     8    4   70 1    
     9    5    6 1    
    10    5   65 1    
    11    5   71 1    
    12    6    7 1    
    13    6   72 1    
    14    6   73 1    
    15    7    8 1    
    16    8    9 1    
    17    8   74 1    
    18    8   75 1    
    19    9   10 ar   
    20    9   14 ar   
    21   10   11 ar   
    22   10   76 1    
    23   11   12 ar   
    24   11   48 1    
    25   12   13 ar   
    26   12   77 1    
    27   13   14 ar   
    28   13   15 1    
    29   14   78 1    
    30   15   16 1    
    31   15   79 1    
    32   15   80 1    
    33   16   17 1    
    34   17   18 1    
    35   17   81 1    
    36   17   82 1    
    37   18   19 1    
    38   18   22 1    
    39   18   83 1    
    40   19   20 am   BACKBONE|DICT|INTERRES
    41   19   21 2    
    42   20   84 1    
    43   20   85 1    
    44   22   23 am   BACKBONE|DICT|INTERRES
    45   22   86 1    
    46   23   24 2    
    47   23   25 1    
    48   25   26 1    
    49   25   27 1    
    50   25   87 1    
    51   26   88 1    
    52   26   89 1    
    53   26   90 1    
    54   27   28 am   BACKBONE|DICT|INTERRES
    55   27   91 1    
    56   28   29 2    
    57   28   30 1    
    58   30   31 1    
    59   30   32 1    
    60   30   92 1    
    61   31   93 1    
    62   31   94 1    
    63   31   95 1    
    64   32   33 am   BACKBONE|DICT|INTERRES
    65   32   96 1    
    66   33   34 2    
    67   33   35 1    
    68   35   36 1    
    69   35   37 1    
    70   35   97 1    
    71   36   98 1    
    72   36   99 1    
    73   36  100 1    
    74   37   38 am   BACKBONE|DICT|INTERRES
    75   37  101 1    
    76   38   39 2    
    77   38   40 1    
    78   40   41 1    
    79   40   42 1    
    80   40  102 1    
    81   41  103 1    
    82   41  104 1    
    83   41  105 1    
    84   42   43 am   BACKBONE|DICT|INTERRES
    85   42  106 1    
    86   43   44 2    
    87   43   45 1    
    88   45   46 1    
    89   45   49 1    
    90   45  107 1    
    91   46   47 1    
    92   46  108 1    
    93   46  109 1    
    94   47   48 1    
    95   48  110 1    
    96   48  111 1    
    97   49   50 am   BACKBONE|DICT|INTERRES
    98   49  112 1    
    99   50   51 2    
   100   50   52 1    
   101   52   53 1    
   102   52   54 1    
   103   52  113 1    
   104   53  114 1    
   105   53  115 1    
   106   53  116 1    
   107   54   55 am   BACKBONE|DICT|INTERRES
   108   54  117 1    
   109   55   56 2    
   110   55   57 1    
   111   57   58 1    
   112   57   59 1    
   113   57  118 1    
   114   58  119 1    
   115   58  120 1    
   116   58  121 1    
   117   59   60 am   BACKBONE|DICT|INTERRES
   118   59  122 1    
   119   60   61 2    
   120   60   62 1    
   121   62   63 1    
   122   62   64 1    
   123   62  123 1    
   124   63  124 1    
   125   63  125 1    
   126   63  126 1    
   127   64   65 am   BACKBONE|DICT|INTERRES
   128   64  127 1    
   129   65   66 2    
@<TRIPOS>SUBSTRUCTURE
     1 UNK         1 GROUP             0       ****    0 ROOT    
