@<TRIPOS>MOLECULE
3R135
127   129    1
SMALL
USER_CHARGES


@<TRIPOS>ATOM
      1 CA        -75.4950   24.4750  -69.8588 C.3       0 UNK        -0.1998 
      2 C         -76.9839   24.7178  -70.0521 C.2       0 UNK         0.4909 
      3 O         -77.7728   23.7727  -70.0161 O.2       0 UNK        -0.5240 
      4 N         -77.3745   25.9791  -70.2674 N.am      1 UNK        -0.4739 
      5 CA        -78.7323   26.3902  -70.6267 C.3       1 UNK         0.0864 
      6 C6        -78.8897   27.9225  -70.4695 C.3       11 UNK        -0.0881 
      7 S7        -80.6171   28.4999  -70.5531 S.3       11 UNK        -0.2682 
      8 C8        -80.4091   30.1302  -71.3427 C.3       11 UNK         0.0289 
      9 C9        -79.8327   30.0619  -72.7547 C.ar      11 UNK        -0.0687 
     10 C10       -80.4958   29.3503  -73.7604 C.ar      11 UNK        -0.0823 
     11 C11       -80.0178   29.3498  -75.0754 C.ar      11 UNK        -0.0830 
     12 C12       -78.8649   30.0899  -75.3750 C.ar      11 UNK        -0.1021 
     13 C13       -78.1745   30.7834  -74.3772 C.ar      11 UNK        -0.0753 
     14 C14       -78.6626   30.7628  -73.0677 C.ar      11 UNK        -0.0933 
     15 C15       -76.9440   31.6080  -74.7388 C.3       11 UNK         0.0166 
     16 S16       -75.4064   30.6288  -74.7357 S.3       11 UNK        -0.2615 
     17 C17       -74.8817   30.7418  -72.9916 C.3       11 UNK        -0.0865 
     18 CA        -74.2559   29.4495  -72.4043 C.3       10 UNK         0.0862 
     19 C         -75.2988   28.3307  -72.1466 C.2       10 UNK         0.5551 
     20 N         -75.6496   27.5189  -73.1340 N.am      10 UNK        -0.7319 
     21 O         -75.7686   28.1854  -71.0218 O.2       10 UNK        -0.5018 
     22 N         -73.0366   29.0069  -73.1039 N.am      10 UNK        -0.4509 
     23 C         -72.1578   28.1522  -72.5582 C.2       10 UNK         0.4899 
     24 O         -72.3275   27.6190  -71.4594 O.2       10 UNK        -0.4839 
     25 CA        -70.8297   27.9052  -73.3042 C.3       9 UNK         0.0222 
     26 CB        -70.0832   26.6596  -72.7756 C.3       9 UNK        -0.1966 
     27 N         -70.9025   27.8491  -74.7685 N.am      9 UNK        -0.4218 
     28 C         -71.6245   27.0013  -75.5126 C.2       9 UNK         0.5020 
     29 O         -72.5321   26.2855  -75.0880 O.2       9 UNK        -0.5274 
     30 CA        -71.1660   26.8530  -76.9666 C.3       8 UNK         0.0270 
     31 CB        -70.1570   25.6870  -77.0627 C.3       8 UNK        -0.1976 
     32 N         -72.3234   26.6256  -77.8275 N.am      8 UNK        -0.4313 
     33 C         -72.2989   26.5813  -79.1670 C.2       8 UNK         0.5041 
     34 O         -71.2742   26.6781  -79.8442 O.2       8 UNK        -0.5577 
     35 CA        -73.6516   26.4443  -79.8853 C.3       7 UNK         0.0284 
     36 CB        -74.0986   24.9745  -79.9292 C.3       7 UNK        -0.1958 
     37 N         -74.6986   27.2649  -79.2748 N.am      7 UNK        -0.4454 
     38 C         -74.6784   28.6047  -79.2058 C.2       7 UNK         0.5089 
     39 O         -73.8016   29.2988  -79.7225 O.2       7 UNK        -0.5125 
     40 CA        -75.8211   29.3032  -78.4458 C.3       6 UNK         0.0408 
     41 CB        -76.6066   30.2433  -79.3754 C.3       6 UNK        -0.1791 
     42 N         -76.7675   28.3950  -77.7960 N.am      6 UNK        -0.4762 
     43 C         -76.5312   27.6427  -76.7156 C.2       6 UNK         0.5007 
     44 O         -75.4250   27.5688  -76.1752 O.2       6 UNK        -0.5032 
     45 CA        -77.7310   26.8544  -76.1330 C.3       5 UNK         0.0783 
     46 C46       -78.9310   26.6158  -77.0984 C.3       11 UNK        -0.0857 
     47 S47       -79.8563   28.1040  -77.6306 S.3       11 UNK        -0.2512 
     48 C48       -80.8078   28.5939  -76.1483 C.3       11 UNK         0.0225 
     49 N         -77.2976   25.6140  -75.4893 N.am      5 UNK        -0.4615 
     50 C         -76.6198   24.6012  -76.0475 C.2       4 UNK         0.5053 
     51 O         -76.3267   24.5425  -77.2418 O.2       4 UNK        -0.5105 
     52 CA        -76.2187   23.4513  -75.1118 C.3       4 UNK         0.0263 
     53 CB        -75.0389   23.8610  -74.2146 C.3       4 UNK        -0.1981 
     54 N         -77.3512   23.0575  -74.2744 N.am      4 UNK        -0.4224 
     55 C         -78.0795   21.9453  -74.4451 C.2       3 UNK         0.4895 
     56 O         -77.8070   21.0570  -75.2535 O.2       3 UNK        -0.5091 
     57 CA        -79.3453   21.8045  -73.5782 C.3       3 UNK         0.0250 
     58 CB        -79.0309   21.0371  -72.2842 C.3       3 UNK        -0.1996 
     59 N         -79.9505   23.0964  -73.2432 N.am      3 UNK        -0.4254 
     60 C         -80.4946   23.9366  -74.1365 C.2       2 UNK         0.5004 
     61 O         -80.6628   23.6544  -75.3226 O.2       2 UNK        -0.5226 
     62 CA        -80.8940   25.3388  -73.6437 C.3       2 UNK         0.0269 
     63 CB        -82.4223   25.4999  -73.6231 C.3       2 UNK        -0.1926 
     64 N         -80.3553   25.7078  -72.3317 N.am      2 UNK        -0.4687 
     65 C         -79.0616   25.9215  -72.0591 C.2       1 UNK         0.5165 
     66 O         -78.1539   25.7594  -72.8822 O.2       1 UNK        -0.5079 
     67 H67       -75.3062   24.0601  -68.8693 H         1 UNK         0.0900 
     68 H68       -75.1323   23.7666  -70.6031 H         1 UNK         0.0900 
     69 H69       -74.9183   25.3950  -69.9599 H         1 UNK         0.0900 
     70 H70       -76.6749   26.7140  -70.3545 H         1 UNK         0.2959 
     71 H71       -79.4184   25.8948  -69.9361 H         1 UNK         0.1079 
     72 H72       -78.2973   28.4402  -71.2241 H         1 UNK         0.0837 
     73 H73       -78.4886   28.2411  -69.5060 H         1 UNK         0.0837 
     74 H74       -81.3820   30.6213  -71.3873 H         1 UNK         0.0685 
     75 H75       -79.7845   30.7506  -70.6980 H         1 UNK         0.0685 
     76 H76       -81.4024   28.8131  -73.5169 H         1 UNK         0.1434 
     77 H77       -78.4975   30.1418  -76.3895 H         1 UNK         0.1329 
     78 H78       -78.1499   31.3225  -72.2978 H         1 UNK         0.1335 
     79 H79       -77.0756   32.0297  -75.7365 H         1 UNK         0.0680 
     80 H80       -76.8417   32.4622  -74.0677 H         1 UNK         0.0680 
     81 H81       -74.1597   31.5564  -72.9187 H         1 UNK         0.1032 
     82 H82       -75.7263   31.0520  -72.3747 H         1 UNK         0.1032 
     83 H83       -73.9144   29.7462  -71.4095 H         1 UNK         0.0461 
     84 H84       -75.2655   27.6375  -74.0647 H         1 UNK         0.3453 
     85 H85       -76.3482   26.8124  -72.9577 H         1 UNK         0.3453 
     86 H86       -72.8722   29.3833  -74.0257 H         1 UNK         0.2984 
     87 H87       -70.2074   28.7715  -73.0757 H         1 UNK         0.0554 
     88 H88       -69.8754   26.7446  -71.7081 H         1 UNK         0.0847 
     89 H89       -69.1245   26.5262  -73.2767 H         1 UNK         0.0847 
     90 H90       -70.6675   25.7502  -72.9224 H         1 UNK         0.0847 
     91 H91       -70.2109   28.4112  -75.2459 H         1 UNK         0.3141 
     92 H92       -70.6833   27.7794  -77.2849 H         1 UNK         0.0743 
     93 H93       -70.6308   24.7300  -76.8400 H         1 UNK         0.0784 
     94 H94       -69.7066   25.6148  -78.0521 H         1 UNK         0.0784 
     95 H95       -69.3380   25.8165  -76.3537 H         1 UNK         0.0784 
     96 H96       -73.2083   26.5545  -77.3361 H         1 UNK         0.3213 
     97 H97       -73.5191   26.7908  -80.9126 H         1 UNK         0.0855 
     98 H98       -74.2325   24.5620  -78.9287 H         1 UNK         0.0814 
     99 H99       -73.3553   24.3583  -80.4368 H         1 UNK         0.0814 
    100 H100      -75.0386   24.8586  -80.4690 H         1 UNK         0.0814 
    101 H101      -75.4497   26.7786  -78.8055 H         1 UNK         0.3105 
    102 H102      -75.3548   29.9108  -77.6683 H         1 UNK         0.0547 
    103 H103      -75.9469   30.9751  -79.8436 H         1 UNK         0.0837 
    104 H104      -77.1049   29.6948  -80.1756 H         1 UNK         0.0837 
    105 H105      -77.3650   30.8020  -78.8267 H         1 UNK         0.0837 
    106 H106      -77.7104   28.3874  -78.1666 H         1 UNK         0.3020 
    107 H107      -78.0856   27.4634  -75.3027 H         1 UNK         0.1245 
    108 H108      -79.6492   25.9399  -76.6332 H         1 UNK         0.0781 
    109 H109      -78.5889   26.0927  -77.9932 H         1 UNK         0.0781 
    110 H110      -81.2858   27.7101  -75.7264 H         1 UNK         0.0836 
    111 H111      -81.6199   29.2438  -76.4763 H         1 UNK         0.0836 
    112 H112      -77.4935   25.5785  -74.4918 H         1 UNK         0.3022 
    113 H113      -75.8925   22.6152  -75.7340 H         1 UNK         0.0747 
    114 H114      -74.7100   23.0303  -73.5905 H         1 UNK         0.0793 
    115 H115      -74.1846   24.1723  -74.8169 H         1 UNK         0.0793 
    116 H116      -75.2921   24.6926  -73.5564 H         1 UNK         0.0793 
    117 H117      -77.6719   23.7385  -73.5975 H         1 UNK         0.3047 
    118 H118      -80.0757   21.2292  -74.1513 H         1 UNK         0.0822 
    119 H119      -79.9307   20.8709  -71.6917 H         1 UNK         0.0807 
    120 H120      -78.3123   21.5716  -71.6613 H         1 UNK         0.0807 
    121 H121      -78.6046   20.0577  -72.5058 H         1 UNK         0.0807 
    122 H122      -79.8645   23.4072  -72.2859 H         1 UNK         0.2946 
    123 H123      -80.4829   26.0439  -74.3665 H         1 UNK         0.1144 
    124 H124      -82.7117   26.5195  -73.3679 H         1 UNK         0.0793 
    125 H125      -82.8883   24.8270  -72.9023 H         1 UNK         0.0793 
    126 H126      -82.8528   25.2790  -74.6010 H         1 UNK         0.0793 
    127 H127      -81.0334   25.8795  -71.6023 H         1 UNK         0.2896 
@<TRIPOS>BOND
     1    1    2 1    
     2    1   67 1    
     3    1   68 1    
     4    1   69 1    
     5    2    3 2    
     6    2    4 am   BACKBONE|DICT|INTERRES
     7    4    5 1    
     8    4   70 1    
     9    5    6 1    
    10    5   65 1    
    11    5   71 1    
    12    6    7 1    
    13    6   72 1    
    14    6   73 1    
    15    7    8 1    
    16    8    9 1    
    17    8   74 1    
    18    8   75 1    
    19    9   10 ar   
    20    9   14 ar   
    21   10   11 ar   
    22   10   76 1    
    23   11   12 ar   
    24   11   48 1    
    25   12   13 ar   
    26   12   77 1    
    27   13   14 ar   
    28   13   15 1    
    29   14   78 1    
    30   15   16 1    
    31   15   79 1    
    32   15   80 1    
    33   16   17 1    
    34   17   18 1    
    35   17   81 1    
    36   17   82 1    
    37   18   19 1    
    38   18   22 1    
    39   18   83 1    
    40   19   20 am   BACKBONE|DICT|INTERRES
    41   19   21 2    
    42   20   84 1    
    43   20   85 1    
    44   22   23 am   BACKBONE|DICT|INTERRES
    45   22   86 1    
    46   23   24 2    
    47   23   25 1    
    48   25   26 1    
    49   25   27 1    
    50   25   87 1    
    51   26   88 1    
    52   26   89 1    
    53   26   90 1    
    54   27   28 am   BACKBONE|DICT|INTERRES
    55   27   91 1    
    56   28   29 2    
    57   28   30 1    
    58   30   31 1    
    59   30   32 1    
    60   30   92 1    
    61   31   93 1    
    62   31   94 1    
    63   31   95 1    
    64   32   33 am   BACKBONE|DICT|INTERRES
    65   32   96 1    
    66   33   34 2    
    67   33   35 1    
    68   35   36 1    
    69   35   37 1    
    70   35   97 1    
    71   36   98 1    
    72   36   99 1    
    73   36  100 1    
    74   37   38 am   BACKBONE|DICT|INTERRES
    75   37  101 1    
    76   38   39 2    
    77   38   40 1    
    78   40   41 1    
    79   40   42 1    
    80   40  102 1    
    81   41  103 1    
    82   41  104 1    
    83   41  105 1    
    84   42   43 am   BACKBONE|DICT|INTERRES
    85   42  106 1    
    86   43   44 2    
    87   43   45 1    
    88   45   46 1    
    89   45   49 1    
    90   45  107 1    
    91   46   47 1    
    92   46  108 1    
    93   46  109 1    
    94   47   48 1    
    95   48  110 1    
    96   48  111 1    
    97   49   50 am   BACKBONE|DICT|INTERRES
    98   49  112 1    
    99   50   51 2    
   100   50   52 1    
   101   52   53 1    
   102   52   54 1    
   103   52  113 1    
   104   53  114 1    
   105   53  115 1    
   106   53  116 1    
   107   54   55 am   BACKBONE|DICT|INTERRES
   108   54  117 1    
   109   55   56 2    
   110   55   57 1    
   111   57   58 1    
   112   57   59 1    
   113   57  118 1    
   114   58  119 1    
   115   58  120 1    
   116   58  121 1    
   117   59   60 am   BACKBONE|DICT|INTERRES
   118   59  122 1    
   119   60   61 2    
   120   60   62 1    
   121   62   63 1    
   122   62   64 1    
   123   62  123 1    
   124   63  124 1    
   125   63  125 1    
   126   63  126 1    
   127   64   65 am   BACKBONE|DICT|INTERRES
   128   64  127 1    
   129   65   66 2    
@<TRIPOS>SUBSTRUCTURE
     1 UNK         1 GROUP             0       ****    0 ROOT    
