@<TRIPOS>MOLECULE
3R135
127   129    1
SMALL
USER_CHARGES


@<TRIPOS>ATOM
      1 CA        -83.0236   21.6927  -72.6474 C.3       0 UNK        -0.1998 
      2 C         -81.9968   22.8135  -72.6881 C.2       0 UNK         0.4909 
      3 O         -81.0288   22.7213  -73.4434 O.2       0 UNK        -0.5240 
      4 N         -82.2136   23.8758  -71.8964 N.am      1 UNK        -0.4739 
      5 CA        -81.3498   25.0587  -71.7616 C.3       1 UNK         0.0864 
      6 C6        -80.0560   24.7433  -70.9616 C.3       11 UNK        -0.0881 
      7 S7        -79.2458   26.2333  -70.2777 S.3       11 UNK        -0.2682 
      8 C8        -77.6502   26.2278  -71.1634 C.3       11 UNK         0.0289 
      9 C9        -77.2281   27.6221  -71.6031 C.ar      11 UNK        -0.0687 
     10 C10       -78.0361   28.3391  -72.4850 C.ar      11 UNK        -0.0823 
     11 C11       -77.6283   29.5758  -72.9808 C.ar      11 UNK        -0.0830 
     12 C12       -76.4100   30.1161  -72.5631 C.ar      11 UNK        -0.1021 
     13 C13       -75.5813   29.4159  -71.6735 C.ar      11 UNK        -0.0753 
     14 C14       -76.0080   28.1702  -71.1944 C.ar      11 UNK        -0.0933 
     15 C15       -74.2057   29.9269  -71.2287 C.3       11 UNK         0.0166 
     16 S16       -73.7837   31.6485  -71.6780 S.3       11 UNK        -0.2615 
     17 C17       -73.4678   31.5204  -73.4771 C.3       11 UNK        -0.0865 
     18 CA        -71.9891   31.6766  -73.9404 C.3       10 UNK         0.0862 
     19 C         -71.3061   33.0148  -73.5190 C.2       10 UNK         0.5551 
     20 N         -70.0090   33.0394  -73.2407 N.am      10 UNK        -0.7319 
     21 O         -71.9499   34.0614  -73.4999 O.2       10 UNK        -0.5018 
     22 N         -71.2086   30.4351  -73.7942 N.am      10 UNK        -0.4509 
     23 C         -70.6505   29.9133  -72.6958 C.2       10 UNK         0.4899 
     24 O         -70.6531   30.4477  -71.5871 O.2       10 UNK        -0.4839 
     25 CA        -69.9912   28.5321  -72.8843 C.3       9 UNK         0.0222 
     26 CB        -69.1675   28.0967  -71.6576 C.3       9 UNK        -0.1966 
     27 N         -70.9928   27.5023  -73.1752 N.am      9 UNK        -0.4218 
     28 C         -71.6142   27.3297  -74.3494 C.2       9 UNK         0.5020 
     29 O         -71.3726   27.9998  -75.3580 O.2       9 UNK        -0.5274 
     30 CA        -72.7277   26.2723  -74.3656 C.3       8 UNK         0.0270 
     31 CB        -73.9966   26.8208  -73.6942 C.3       8 UNK        -0.1976 
     32 N         -73.0591   25.8498  -75.7253 N.am      8 UNK        -0.4313 
     33 C         -72.3758   24.9350  -76.4251 C.2       8 UNK         0.5041 
     34 O         -71.3618   24.3783  -75.9986 O.2       8 UNK        -0.5577 
     35 CA        -72.9100   24.5434  -77.8163 C.3       7 UNK         0.0284 
     36 CB        -73.1023   23.0195  -77.9218 C.3       7 UNK        -0.1958 
     37 N         -74.1885   25.1897  -78.1239 N.am      7 UNK        -0.4454 
     38 C         -74.4127   26.0064  -79.1617 C.2       7 UNK         0.5089 
     39 O         -73.5562   26.3008  -79.9965 O.2       7 UNK        -0.5125 
     40 CA        -75.8288   26.6004  -79.3149 C.3       6 UNK         0.0408 
     41 CB        -76.6150   25.8300  -80.3876 C.3       6 UNK        -0.1791 
     42 N         -76.6237   26.6362  -78.0835 N.am      6 UNK        -0.4762 
     43 C         -76.3080   27.3179  -76.9723 C.2       6 UNK         0.5007 
     44 O         -75.2792   27.9829  -76.8497 O.2       6 UNK        -0.5032 
     45 CA        -77.2716   27.1729  -75.7730 C.3       5 UNK         0.0783 
     46 C46       -78.4536   28.1728  -75.8858 C.3       11 UNK        -0.0857 
     47 S47       -77.9697   29.9270  -75.6994 S.3       11 UNK        -0.2512 
     48 C48       -78.4911   30.3073  -73.9958 C.3       11 UNK         0.0225 
     49 N         -77.7640   25.7997  -75.5597 N.am      5 UNK        -0.4615 
     50 C         -77.0613   24.6553  -75.6046 C.2       4 UNK         0.5053 
     51 O         -75.8573   24.5951  -75.8470 O.2       4 UNK        -0.5105 
     52 CA        -77.8213   23.3389  -75.3722 C.3       4 UNK         0.0263 
     53 CB        -77.6310   22.8569  -73.9286 C.3       4 UNK        -0.1981 
     54 N         -79.2510   23.4214  -75.6809 N.am      4 UNK        -0.4224 
     55 C         -79.7479   23.5202  -76.9231 C.2       3 UNK         0.4895 
     56 O         -79.0533   23.5440  -77.9400 O.2       3 UNK        -0.5091 
     57 CA        -81.2747   23.6353  -77.0521 C.3       3 UNK         0.0250 
     58 CB        -81.9527   22.2681  -76.8633 C.3       3 UNK        -0.1996 
     59 N         -81.8250   24.6026  -76.1018 N.am      3 UNK        -0.4254 
     60 C         -81.7133   25.9320  -76.2346 C.2       2 UNK         0.5004 
     61 O         -81.2060   26.4813  -77.2122 O.2       2 UNK        -0.5226 
     62 CA        -82.2451   26.8040  -75.0822 C.3       2 UNK         0.0269 
     63 CB        -83.6753   27.2781  -75.3862 C.3       2 UNK        -0.1926 
     64 N         -82.2230   26.1506  -73.7684 N.am      2 UNK        -0.4687 
     65 C         -81.1171   25.7360  -73.1326 C.2       1 UNK         0.5165 
     66 O         -79.9890   25.8137  -73.6210 O.2       1 UNK        -0.5079 
     67 H67       -83.8282   21.9004  -71.9424 H         1 UNK         0.0900 
     68 H68       -83.4635   21.5517  -73.6342 H         1 UNK         0.0900 
     69 H69       -82.5452   20.7596  -72.3514 H         1 UNK         0.0900 
     70 H70       -83.0425   23.8854  -71.3175 H         1 UNK         0.2959 
     71 H71       -81.9236   25.7753  -71.1711 H         1 UNK         0.1079 
     72 H72       -79.3634   24.1484  -71.5535 H         1 UNK         0.0837 
     73 H73       -80.3079   24.1141  -70.1066 H         1 UNK         0.0837 
     74 H74       -76.8934   25.7696  -70.5251 H         1 UNK         0.0685 
     75 H75       -77.7127   25.6100  -72.0589 H         1 UNK         0.0685 
     76 H76       -78.9765   27.9186  -72.8056 H         1 UNK         0.1434 
     77 H77       -76.1136   31.0752  -72.9595 H         1 UNK         0.1329 
     78 H78       -75.3717   27.6115  -70.5216 H         1 UNK         0.1335 
     79 H79       -74.1430   29.8493  -70.1424 H         1 UNK         0.0680 
     80 H80       -73.4356   29.2654  -71.6263 H         1 UNK         0.0680 
     81 H81       -74.0729   32.2899  -73.9597 H         1 UNK         0.1032 
     82 H82       -73.8643   30.5752  -73.8513 H         1 UNK         0.1032 
     83 H83       -72.0478   31.7812  -75.0245 H         1 UNK         0.0461 
     84 H84       -69.4751   32.1854  -73.2417 H         1 UNK         0.3453 
     85 H85       -69.5721   33.9117  -72.9881 H         1 UNK         0.3453 
     86 H86       -71.1573   29.8623  -74.6312 H         1 UNK         0.2984 
     87 H87       -69.3067   28.6062  -73.7322 H         1 UNK         0.0554 
     88 H88       -68.3977   28.8334  -71.4238 H         1 UNK         0.0847 
     89 H89       -68.6607   27.1480  -71.8356 H         1 UNK         0.0847 
     90 H90       -69.7898   27.9836  -70.7688 H         1 UNK         0.0847 
     91 H91       -71.2773   26.9283  -72.3943 H         1 UNK         0.3141 
     92 H92       -72.3883   25.4002  -73.8022 H         1 UNK         0.0743 
     93 H93       -74.3403   27.7423  -74.1665 H         1 UNK         0.0784 
     94 H94       -74.8120   26.0981  -73.7281 H         1 UNK         0.0784 
     95 H95       -73.8125   27.0418  -72.6434 H         1 UNK         0.0784 
     96 H96       -73.8377   26.3195  -76.1684 H         1 UNK         0.3213 
     97 H97       -72.1449   24.8430  -78.5353 H         1 UNK         0.0855 
     98 H98       -73.8315   22.6572  -77.1957 H         1 UNK         0.0814 
     99 H99       -72.1666   22.4894  -77.7392 H         1 UNK         0.0814 
    100 H100      -73.4465   22.7317  -78.9152 H         1 UNK         0.0814 
    101 H101      -74.9412   25.0098  -77.4621 H         1 UNK         0.3105 
    102 H102      -75.7092   27.6312  -79.6547 H         1 UNK         0.0547 
    103 H103      -76.0667   25.8006  -81.3304 H         1 UNK         0.0837 
    104 H104      -76.8016   24.7980  -80.0865 H         1 UNK         0.0837 
    105 H105      -77.5775   26.2998  -80.5905 H         1 UNK         0.0837 
    106 H106      -77.4681   26.0798  -78.0737 H         1 UNK         0.3020 
    107 H107      -76.6997   27.4244  -74.8786 H         1 UNK         0.1245 
    108 H108      -79.2091   27.9460  -75.1350 H         1 UNK         0.0781 
    109 H109      -78.9616   28.0584  -76.8452 H         1 UNK         0.0781 
    110 H110      -79.5444   30.0537  -73.8657 H         1 UNK         0.0836 
    111 H111      -78.4160   31.3838  -73.8350 H         1 UNK         0.0836 
    112 H112      -78.7268   25.7260  -75.2493 H         1 UNK         0.3022 
    113 H113      -77.3801   22.5910  -76.0346 H         1 UNK         0.0747 
    114 H114      -78.1249   21.9000  -73.7584 H         1 UNK         0.0793 
    115 H115      -76.5735   22.7268  -73.6946 H         1 UNK         0.0793 
    116 H116      -78.0366   23.5745  -73.2197 H         1 UNK         0.0793 
    117 H117      -79.8919   23.3777  -74.8915 H         1 UNK         0.3047 
    118 H118      -81.4979   23.9821  -78.0637 H         1 UNK         0.0822 
    119 H119      -83.0316   22.3380  -77.0028 H         1 UNK         0.0807 
    120 H120      -81.7689   21.8523  -75.8725 H         1 UNK         0.0807 
    121 H121      -81.5789   21.5468  -77.5913 H         1 UNK         0.0807 
    122 H122      -82.2255   24.2363  -75.2505 H         1 UNK         0.2946 
    123 H123      -81.6014   27.6840  -75.0237 H         1 UNK         0.1144 
    124 H124      -83.7200   27.7928  -76.3472 H         1 UNK         0.0793 
    125 H125      -84.0313   27.9785  -74.6303 H         1 UNK         0.0793 
    126 H126      -84.3769   26.4441  -75.4305 H         1 UNK         0.0793 
    127 H127      -83.1163   26.0146  -73.3167 H         1 UNK         0.2896 
@<TRIPOS>BOND
     1    1    2 1    
     2    1   67 1    
     3    1   68 1    
     4    1   69 1    
     5    2    3 2    
     6    2    4 am   BACKBONE|DICT|INTERRES
     7    4    5 1    
     8    4   70 1    
     9    5    6 1    
    10    5   65 1    
    11    5   71 1    
    12    6    7 1    
    13    6   72 1    
    14    6   73 1    
    15    7    8 1    
    16    8    9 1    
    17    8   74 1    
    18    8   75 1    
    19    9   10 ar   
    20    9   14 ar   
    21   10   11 ar   
    22   10   76 1    
    23   11   12 ar   
    24   11   48 1    
    25   12   13 ar   
    26   12   77 1    
    27   13   14 ar   
    28   13   15 1    
    29   14   78 1    
    30   15   16 1    
    31   15   79 1    
    32   15   80 1    
    33   16   17 1    
    34   17   18 1    
    35   17   81 1    
    36   17   82 1    
    37   18   19 1    
    38   18   22 1    
    39   18   83 1    
    40   19   20 am   BACKBONE|DICT|INTERRES
    41   19   21 2    
    42   20   84 1    
    43   20   85 1    
    44   22   23 am   BACKBONE|DICT|INTERRES
    45   22   86 1    
    46   23   24 2    
    47   23   25 1    
    48   25   26 1    
    49   25   27 1    
    50   25   87 1    
    51   26   88 1    
    52   26   89 1    
    53   26   90 1    
    54   27   28 am   BACKBONE|DICT|INTERRES
    55   27   91 1    
    56   28   29 2    
    57   28   30 1    
    58   30   31 1    
    59   30   32 1    
    60   30   92 1    
    61   31   93 1    
    62   31   94 1    
    63   31   95 1    
    64   32   33 am   BACKBONE|DICT|INTERRES
    65   32   96 1    
    66   33   34 2    
    67   33   35 1    
    68   35   36 1    
    69   35   37 1    
    70   35   97 1    
    71   36   98 1    
    72   36   99 1    
    73   36  100 1    
    74   37   38 am   BACKBONE|DICT|INTERRES
    75   37  101 1    
    76   38   39 2    
    77   38   40 1    
    78   40   41 1    
    79   40   42 1    
    80   40  102 1    
    81   41  103 1    
    82   41  104 1    
    83   41  105 1    
    84   42   43 am   BACKBONE|DICT|INTERRES
    85   42  106 1    
    86   43   44 2    
    87   43   45 1    
    88   45   46 1    
    89   45   49 1    
    90   45  107 1    
    91   46   47 1    
    92   46  108 1    
    93   46  109 1    
    94   47   48 1    
    95   48  110 1    
    96   48  111 1    
    97   49   50 am   BACKBONE|DICT|INTERRES
    98   49  112 1    
    99   50   51 2    
   100   50   52 1    
   101   52   53 1    
   102   52   54 1    
   103   52  113 1    
   104   53  114 1    
   105   53  115 1    
   106   53  116 1    
   107   54   55 am   BACKBONE|DICT|INTERRES
   108   54  117 1    
   109   55   56 2    
   110   55   57 1    
   111   57   58 1    
   112   57   59 1    
   113   57  118 1    
   114   58  119 1    
   115   58  120 1    
   116   58  121 1    
   117   59   60 am   BACKBONE|DICT|INTERRES
   118   59  122 1    
   119   60   61 2    
   120   60   62 1    
   121   62   63 1    
   122   62   64 1    
   123   62  123 1    
   124   63  124 1    
   125   63  125 1    
   126   63  126 1    
   127   64   65 am   BACKBONE|DICT|INTERRES
   128   64  127 1    
   129   65   66 2    
@<TRIPOS>SUBSTRUCTURE
     1 UNK         1 GROUP             0       ****    0 ROOT    
