@<TRIPOS>MOLECULE
3R135
127   129    1
SMALL
USER_CHARGES


@<TRIPOS>ATOM
      1 CA        -80.8991   30.0793  -76.1271 C.3       0 UNK        -0.1998 
      2 C         -80.5770   29.0600  -75.0454 C.2       0 UNK         0.4909 
      3 O         -79.5361   28.4082  -75.1109 O.2       0 UNK        -0.5240 
      4 N         -81.4632   28.9121  -74.0530 N.am      1 UNK        -0.4739 
      5 CA        -81.3258   27.9792  -72.9287 C.3       1 UNK         0.0864 
      6 C6        -82.0904   28.4721  -71.6711 C.3       11 UNK        -0.0881 
      7 S7        -81.5767   30.1327  -71.1122 S.3       11 UNK        -0.2682 
      8 C8        -80.5147   29.7469  -69.6847 C.3       11 UNK         0.0289 
      9 C9        -79.1209   29.3179  -70.1177 C.ar      11 UNK        -0.0687 
     10 C10       -78.7700   27.9645  -70.1519 C.ar      11 UNK        -0.0823 
     11 C11       -77.4844   27.5771  -70.5438 C.ar      11 UNK        -0.0830 
     12 C12       -76.5418   28.5541  -70.8765 C.ar      11 UNK        -0.1021 
     13 C13       -76.8838   29.9083  -70.8557 C.ar      11 UNK        -0.0753 
     14 C14       -78.1751   30.2843  -70.4748 C.ar      11 UNK        -0.0933 
     15 C15       -75.8528   30.9602  -71.2353 C.3       11 UNK         0.0166 
     16 S16       -75.3722   30.8264  -72.9864 S.3       11 UNK        -0.2615 
     17 C17       -74.3425   32.3201  -73.1921 C.3       11 UNK        -0.0865 
     18 CA        -72.8055   32.1456  -73.0001 C.3       10 UNK         0.0862 
     19 C         -72.3508   32.0173  -71.5122 C.2       10 UNK         0.5551 
     20 N         -71.2918   31.2832  -71.1981 N.am      10 UNK        -0.7319 
     21 O         -72.9329   32.6440  -70.6301 O.2       10 UNK        -0.5018 
     22 N         -72.1735   31.2575  -73.9979 N.am      10 UNK        -0.4509 
     23 C         -72.0585   29.9223  -73.9865 C.2       10 UNK         0.4899 
     24 O         -72.4741   29.1804  -73.0935 O.2       10 UNK        -0.4839 
     25 CA        -71.2865   29.3218  -75.1682 C.3       9 UNK         0.0222 
     26 CB        -69.7818   29.6477  -75.0688 C.3       9 UNK        -0.1966 
     27 N         -71.4844   27.8753  -75.1835 N.am      9 UNK        -0.4218 
     28 C         -71.2797   27.0664  -76.2288 C.2       9 UNK         0.5020 
     29 O         -70.8882   27.4665  -77.3272 O.2       9 UNK        -0.5274 
     30 CA        -71.5279   25.5603  -76.0273 C.3       8 UNK         0.0270 
     31 CB        -71.8517   25.1522  -74.5740 C.3       8 UNK        -0.1976 
     32 N         -72.6208   25.1394  -76.9001 N.am      8 UNK        -0.4313 
     33 C         -72.4780   24.5823  -78.1104 C.2       8 UNK         0.5041 
     34 O         -71.3874   24.2822  -78.6001 O.2       8 UNK        -0.5577 
     35 CA        -73.7558   24.2839  -78.9207 C.3       7 UNK         0.0284 
     36 CB        -74.0365   22.7721  -78.9361 C.3       7 UNK        -0.1958 
     37 N         -74.9470   24.9857  -78.4352 N.am      7 UNK        -0.4454 
     38 C         -75.1719   26.3005  -78.5665 C.2       7 UNK         0.5089 
     39 O         -74.4340   27.0629  -79.1906 O.2       7 UNK        -0.5125 
     40 CA        -76.4088   26.8680  -77.8462 C.3       6 UNK         0.0408 
     41 CB        -77.6529   26.7749  -78.7424 C.3       6 UNK        -0.1791 
     42 N         -76.6847   26.2129  -76.5646 N.am      6 UNK        -0.4762 
     43 C         -75.8599   26.2040  -75.5064 C.2       6 UNK         0.5007 
     44 O         -74.7637   26.7617  -75.4903 O.2       6 UNK        -0.5032 
     45 CA        -76.3118   25.3818  -74.2863 C.3       5 UNK         0.0783 
     46 C46       -77.3598   26.1649  -73.4628 C.3       11 UNK        -0.0857 
     47 S47       -77.9606   25.2568  -71.9967 S.3       11 UNK        -0.2512 
     48 C48       -77.1119   26.1036  -70.6250 C.3       11 UNK         0.0225 
     49 N         -76.7906   24.0653  -74.7138 N.am      5 UNK        -0.4615 
     50 C         -76.0002   23.0724  -75.1418 C.2       4 UNK         0.5053 
     51 O         -74.7722   23.1399  -75.1688 O.2       4 UNK        -0.5105 
     52 CA        -76.6946   21.7925  -75.6400 C.3       4 UNK         0.0263 
     53 CB        -76.8977   20.8070  -74.4783 C.3       4 UNK        -0.1981 
     54 N         -77.9831   22.0514  -76.2884 N.am      4 UNK        -0.4224 
     55 C         -78.1328   22.7052  -77.4499 C.2       3 UNK         0.4895 
     56 O         -77.1948   23.1228  -78.1272 O.2       3 UNK        -0.5091 
     57 CA        -79.5772   22.9936  -77.8985 C.3       3 UNK         0.0250 
     58 CB        -80.1638   21.7875  -78.6491 C.3       3 UNK        -0.1996 
     59 N         -80.4635   23.3679  -76.7885 N.am      3 UNK        -0.4254 
     60 C         -80.2648   24.4303  -75.9965 C.2       2 UNK         0.5004 
     61 O         -79.3248   25.2158  -76.1392 O.2       2 UNK        -0.5226 
     62 CA        -81.2287   24.6111  -74.8190 C.3       2 UNK         0.0269 
     63 CB        -81.0021   23.5111  -73.7606 C.3       2 UNK        -0.1926 
     64 N         -80.9997   25.9339  -74.2409 N.am      2 UNK        -0.4687 
     65 C         -81.7785   26.5663  -73.3593 C.2       1 UNK         0.5165 
     66 O         -82.8294   26.0915  -72.9230 O.2       1 UNK        -0.5079 
     67 H67       -80.1196   30.8396  -76.1678 H         1 UNK         0.0900 
     68 H68       -80.9490   29.5897  -77.0993 H         1 UNK         0.0900 
     69 H69       -81.8514   30.5780  -75.9476 H         1 UNK         0.0900 
     70 H70       -82.3065   29.4679  -74.0526 H         1 UNK         0.2959 
     71 H71       -80.2686   27.9071  -72.6610 H         1 UNK         0.1079 
     72 H72       -81.9690   27.7624  -70.8507 H         1 UNK         0.0837 
     73 H73       -83.1630   28.5150  -71.8705 H         1 UNK         0.0837 
     74 H74       -80.9841   28.9836  -69.0622 H         1 UNK         0.0685 
     75 H75       -80.4375   30.6375  -69.0592 H         1 UNK         0.0685 
     76 H76       -79.4986   27.2100  -69.8880 H         1 UNK         0.1434 
     77 H77       -75.5443   28.2644  -71.1792 H         1 UNK         0.1329 
     78 H78       -78.4483   31.3306  -70.4544 H         1 UNK         0.1335 
     79 H79       -76.2367   31.9625  -71.0396 H         1 UNK         0.0680 
     80 H80       -74.9714   30.8332  -70.6063 H         1 UNK         0.0680 
     81 H81       -74.7209   33.1111  -72.5422 H         1 UNK         0.1032 
     82 H82       -74.5246   32.6866  -74.2032 H         1 UNK         0.1032 
     83 H83       -72.3890   33.1177  -73.2674 H         1 UNK         0.0461 
     84 H84       -70.8218   30.7436  -71.9065 H         1 UNK         0.3453 
     85 H85       -70.9964   31.2263  -70.2365 H         1 UNK         0.3453 
     86 H86       -71.7567   31.7461  -74.7773 H         1 UNK         0.2984 
     87 H87       -71.6955   29.7436  -76.0888 H         1 UNK         0.0554 
     88 H88       -69.6059   30.7238  -75.0522 H         1 UNK         0.0847 
     89 H89       -69.2295   29.2507  -75.9206 H         1 UNK         0.0847 
     90 H90       -69.3401   29.2306  -74.1629 H         1 UNK         0.0847 
     91 H91       -71.8766   27.5037  -74.3263 H         1 UNK         0.3141 
     92 H92       -70.6059   25.0487  -76.3106 H         1 UNK         0.0743 
     93 H93       -71.0397   25.4221  -73.8975 H         1 UNK         0.0784 
     94 H94       -72.7655   25.6162  -74.2032 H         1 UNK         0.0784 
     95 H95       -71.9841   24.0726  -74.4963 H         1 UNK         0.0784 
     96 H96       -73.5500   25.4072  -76.5971 H         1 UNK         0.3213 
     97 H97       -73.5689   24.6060  -79.9474 H         1 UNK         0.0855 
     98 H98       -74.2498   22.3938  -77.9357 H         1 UNK         0.0814 
     99 H99       -73.1791   22.2172  -79.3194 H         1 UNK         0.0814 
    100 H100      -74.8873   22.5324  -79.5741 H         1 UNK         0.0814 
    101 H101      -75.6607   24.4171  -77.9887 H         1 UNK         0.3105 
    102 H102      -76.2167   27.9225  -77.6384 H         1 UNK         0.0547 
    103 H103      -77.4940   27.2960  -79.6873 H         1 UNK         0.0837 
    104 H104      -78.5210   27.2274  -78.2621 H         1 UNK         0.0837 
    105 H105      -77.9030   25.7399  -78.9772 H         1 UNK         0.0837 
    106 H106      -77.5934   25.7606  -76.4717 H         1 UNK         0.3020 
    107 H107      -75.4338   25.2317  -73.6535 H         1 UNK         0.1245 
    108 H108      -78.2285   26.3956  -74.0764 H         1 UNK         0.0781 
    109 H109      -76.9540   27.1319  -73.1661 H         1 UNK         0.0781 
    110 H110      -76.0342   25.9782  -70.7415 H         1 UNK         0.0836 
    111 H111      -77.3769   25.6128  -69.6875 H         1 UNK         0.0836 
    112 H112      -77.7919   23.9500  -74.7552 H         1 UNK         0.3022 
    113 H113      -76.0362   21.3249  -76.3752 H         1 UNK         0.0747 
    114 H114      -77.3173   19.8630  -74.8266 H         1 UNK         0.0793 
    115 H115      -75.9481   20.5776  -73.9924 H         1 UNK         0.0793 
    116 H116      -77.5643   21.2116  -73.7153 H         1 UNK         0.0793 
    117 H117      -78.8113   21.7399  -75.8029 H         1 UNK         0.3047 
    118 H118      -79.5408   23.8387  -78.5891 H         1 UNK         0.0822 
    119 H119      -81.1493   22.0145  -79.0562 H         1 UNK         0.0807 
    120 H120      -80.2596   20.9137  -78.0033 H         1 UNK         0.0807 
    121 H121      -79.5267   21.5041  -79.4883 H         1 UNK         0.0807 
    122 H122      -81.2550   22.7647  -76.6141 H         1 UNK         0.2946 
    123 H123      -82.2525   24.5636  -75.1965 H         1 UNK         0.1144 
    124 H124      -79.9794   23.5195  -73.3832 H         1 UNK         0.0793 
    125 H125      -81.1895   22.5190  -74.1723 H         1 UNK         0.0793 
    126 H126      -81.6702   23.6281  -72.9076 H         1 UNK         0.0793 
    127 H127      -80.2010   26.4282  -74.6325 H         1 UNK         0.2896 
@<TRIPOS>BOND
     1    1    2 1    
     2    1   67 1    
     3    1   68 1    
     4    1   69 1    
     5    2    3 2    
     6    2    4 am   BACKBONE|DICT|INTERRES
     7    4    5 1    
     8    4   70 1    
     9    5    6 1    
    10    5   65 1    
    11    5   71 1    
    12    6    7 1    
    13    6   72 1    
    14    6   73 1    
    15    7    8 1    
    16    8    9 1    
    17    8   74 1    
    18    8   75 1    
    19    9   10 ar   
    20    9   14 ar   
    21   10   11 ar   
    22   10   76 1    
    23   11   12 ar   
    24   11   48 1    
    25   12   13 ar   
    26   12   77 1    
    27   13   14 ar   
    28   13   15 1    
    29   14   78 1    
    30   15   16 1    
    31   15   79 1    
    32   15   80 1    
    33   16   17 1    
    34   17   18 1    
    35   17   81 1    
    36   17   82 1    
    37   18   19 1    
    38   18   22 1    
    39   18   83 1    
    40   19   20 am   BACKBONE|DICT|INTERRES
    41   19   21 2    
    42   20   84 1    
    43   20   85 1    
    44   22   23 am   BACKBONE|DICT|INTERRES
    45   22   86 1    
    46   23   24 2    
    47   23   25 1    
    48   25   26 1    
    49   25   27 1    
    50   25   87 1    
    51   26   88 1    
    52   26   89 1    
    53   26   90 1    
    54   27   28 am   BACKBONE|DICT|INTERRES
    55   27   91 1    
    56   28   29 2    
    57   28   30 1    
    58   30   31 1    
    59   30   32 1    
    60   30   92 1    
    61   31   93 1    
    62   31   94 1    
    63   31   95 1    
    64   32   33 am   BACKBONE|DICT|INTERRES
    65   32   96 1    
    66   33   34 2    
    67   33   35 1    
    68   35   36 1    
    69   35   37 1    
    70   35   97 1    
    71   36   98 1    
    72   36   99 1    
    73   36  100 1    
    74   37   38 am   BACKBONE|DICT|INTERRES
    75   37  101 1    
    76   38   39 2    
    77   38   40 1    
    78   40   41 1    
    79   40   42 1    
    80   40  102 1    
    81   41  103 1    
    82   41  104 1    
    83   41  105 1    
    84   42   43 am   BACKBONE|DICT|INTERRES
    85   42  106 1    
    86   43   44 2    
    87   43   45 1    
    88   45   46 1    
    89   45   49 1    
    90   45  107 1    
    91   46   47 1    
    92   46  108 1    
    93   46  109 1    
    94   47   48 1    
    95   48  110 1    
    96   48  111 1    
    97   49   50 am   BACKBONE|DICT|INTERRES
    98   49  112 1    
    99   50   51 2    
   100   50   52 1    
   101   52   53 1    
   102   52   54 1    
   103   52  113 1    
   104   53  114 1    
   105   53  115 1    
   106   53  116 1    
   107   54   55 am   BACKBONE|DICT|INTERRES
   108   54  117 1    
   109   55   56 2    
   110   55   57 1    
   111   57   58 1    
   112   57   59 1    
   113   57  118 1    
   114   58  119 1    
   115   58  120 1    
   116   58  121 1    
   117   59   60 am   BACKBONE|DICT|INTERRES
   118   59  122 1    
   119   60   61 2    
   120   60   62 1    
   121   62   63 1    
   122   62   64 1    
   123   62  123 1    
   124   63  124 1    
   125   63  125 1    
   126   63  126 1    
   127   64   65 am   BACKBONE|DICT|INTERRES
   128   64  127 1    
   129   65   66 2    
@<TRIPOS>SUBSTRUCTURE
     1 UNK         1 GROUP             0       ****    0 ROOT    
