@<TRIPOS>MOLECULE
3R135
127   129    1
SMALL
USER_CHARGES


@<TRIPOS>ATOM
      1 CA        -77.7507   20.4410  -72.4453 C.3       0 UNK        -0.1998 
      2 C         -78.6848   21.2744  -71.5806 C.2       0 UNK         0.4909 
      3 O         -78.6894   21.1235  -70.3583 O.2       0 UNK        -0.5240 
      4 N         -79.4774   22.1471  -72.2070 N.am      1 UNK        -0.4739 
      5 CA        -80.4451   23.0415  -71.5752 C.3       1 UNK         0.0864 
      6 C6        -79.7765   24.2224  -70.8164 C.3       11 UNK        -0.0881 
      7 S7        -78.8368   25.3803  -71.8754 S.3       11 UNK        -0.2682 
      8 C8        -79.6855   26.9459  -71.4978 C.3       11 UNK         0.0289 
      9 C9        -79.0392   28.1219  -72.2136 C.ar      11 UNK        -0.0687 
     10 C10       -79.7200   28.7944  -73.2322 C.ar      11 UNK        -0.0823 
     11 C11       -79.1241   29.8733  -73.8930 C.ar      11 UNK        -0.0830 
     12 C12       -77.8400   30.2851  -73.5236 C.ar      11 UNK        -0.1021 
     13 C13       -77.1473   29.6129  -72.5131 C.ar      11 UNK        -0.0753 
     14 C14       -77.7556   28.5415  -71.8537 C.ar      11 UNK        -0.0933 
     15 C15       -75.7287   30.0174  -72.1543 C.3       11 UNK         0.0166 
     16 S16       -74.5347   29.0011  -73.0724 S.3       11 UNK        -0.2615 
     17 C17       -72.9553   29.6064  -72.3915 C.3       11 UNK        -0.0865 
     18 CA        -72.1687   30.4821  -73.3991 C.3       10 UNK         0.0862 
     19 C         -70.9583   31.1523  -72.6927 C.2       10 UNK         0.5551 
     20 N         -71.0648   32.4300  -72.3538 N.am      10 UNK        -0.7319 
     21 O         -69.9505   30.5113  -72.4029 O.2       10 UNK        -0.5018 
     22 N         -71.7672   29.7157  -74.5900 N.am      10 UNK        -0.4509 
     23 C         -71.2192   30.2526  -75.6912 C.2       10 UNK         0.4899 
     24 O         -71.0724   31.4663  -75.8479 O.2       10 UNK        -0.4839 
     25 CA        -70.7807   29.2932  -76.8215 C.3       9 UNK         0.0222 
     26 CB        -69.6622   29.8831  -77.7067 C.3       9 UNK        -0.1966 
     27 N         -70.4217   27.9488  -76.3584 N.am      9 UNK        -0.4218 
     28 C         -69.4671   27.6056  -75.4781 C.2       9 UNK         0.5020 
     29 O         -68.6335   28.3940  -75.0298 O.2       9 UNK        -0.5274 
     30 CA        -69.4488   26.1312  -75.0089 C.3       8 UNK         0.0270 
     31 CB        -68.9598   25.9888  -73.5515 C.3       8 UNK        -0.1976 
     32 N         -70.7305   25.4297  -75.1917 N.am      8 UNK        -0.4313 
     33 C         -71.9249   25.7839  -74.6922 C.2       8 UNK         0.5041 
     34 O         -72.0974   26.7435  -73.9407 O.2       8 UNK        -0.5577 
     35 CA        -73.1391   24.9799  -75.1929 C.3       7 UNK         0.0284 
     36 CB        -74.0818   24.6223  -74.0309 C.3       7 UNK        -0.1958 
     37 N         -73.8993   25.6936  -76.2292 N.am      7 UNK        -0.4454 
     38 C         -73.4041   26.1815  -77.3799 C.2       7 UNK         0.5089 
     39 O         -72.2183   26.0945  -77.7013 O.2       7 UNK        -0.5125 
     40 CA        -74.3694   26.8668  -78.3661 C.3       6 UNK         0.0408 
     41 CB        -74.5306   26.0145  -79.6356 C.3       6 UNK        -0.1791 
     42 N         -75.6940   27.1337  -77.8088 N.am      6 UNK        -0.4762 
     43 C         -75.9962   28.1342  -76.9699 C.2       6 UNK         0.5007 
     44 O         -75.1884   28.9985  -76.6309 O.2       6 UNK        -0.5032 
     45 CA        -77.4425   28.1836  -76.4281 C.3       5 UNK         0.0783 
     46 C46       -78.1963   29.4074  -77.0152 C.3       11 UNK        -0.0857 
     47 S47       -79.9493   29.5151  -76.5085 S.3       11 UNK        -0.2512 
     48 C48       -79.8579   30.5704  -75.0277 C.3       11 UNK         0.0225 
     49 N         -78.1858   26.9308  -76.6222 N.am      5 UNK        -0.4615 
     50 C         -77.9196   25.7617  -76.0302 C.2       4 UNK         0.5053 
     51 O         -76.9366   25.5879  -75.3098 O.2       4 UNK        -0.5105 
     52 CA        -78.8809   24.5897  -76.3293 C.3       4 UNK         0.0263 
     53 CB        -78.5238   23.3317  -75.5172 C.3       4 UNK        -0.1981 
     54 N         -80.3003   24.9176  -76.1208 N.am      4 UNK        -0.4224 
     55 C         -81.0435   25.6849  -76.9350 C.2       3 UNK         0.4895 
     56 O         -80.5865   26.2156  -77.9491 O.2       3 UNK        -0.5091 
     57 CA        -82.5328   25.9037  -76.6059 C.3       3 UNK         0.0250 
     58 CB        -83.4189   25.4840  -77.7925 C.3       3 UNK        -0.1996 
     59 N         -82.9869   25.1851  -75.4149 N.am      3 UNK        -0.4254 
     60 C         -83.0255   25.6862  -74.1741 C.2       2 UNK         0.5004 
     61 O         -82.6505   26.8202  -73.8784 O.2       2 UNK        -0.5226 
     62 CA        -83.5744   24.7666  -73.0642 C.3       2 UNK         0.0269 
     63 CB        -84.4983   23.6405  -73.5839 C.3       2 UNK        -0.1926 
     64 N         -82.5043   24.2083  -72.2282 N.am      2 UNK        -0.4687 
     65 C         -81.4501   23.4952  -72.6507 C.2       1 UNK         0.5165 
     66 O         -81.2533   23.1990  -73.8344 O.2       1 UNK        -0.5079 
     67 H67       -76.7156   20.6126  -72.1514 H         1 UNK         0.0900 
     68 H68       -77.8471   20.6869  -73.5029 H         1 UNK         0.0900 
     69 H69       -77.9698   19.3808  -72.3216 H         1 UNK         0.0900 
     70 H70       -79.4935   22.2042  -73.2180 H         1 UNK         0.2959 
     71 H71       -81.0140   22.4484  -70.8555 H         1 UNK         0.1079 
     72 H72       -80.5285   24.7725  -70.2487 H         1 UNK         0.0837 
     73 H73       -79.0896   23.8336  -70.0636 H         1 UNK         0.0837 
     74 H74       -80.7377   26.8572  -71.7731 H         1 UNK         0.0685 
     75 H75       -79.6567   27.1242  -70.4218 H         1 UNK         0.0685 
     76 H76       -80.7088   28.4705  -73.5263 H         1 UNK         0.1434 
     77 H77       -77.3655   31.1070  -74.0425 H         1 UNK         0.1329 
     78 H78       -77.2189   28.0141  -71.0767 H         1 UNK         0.1335 
     79 H79       -75.5607   31.0715  -72.3806 H         1 UNK         0.0680 
     80 H80       -75.5684   29.8957  -71.0818 H         1 UNK         0.0680 
     81 H81       -72.3577   28.7428  -72.0930 H         1 UNK         0.1032 
     82 H82       -73.1545   30.1609  -71.4724 H         1 UNK         0.1032 
     83 H83       -72.8389   31.2728  -73.7433 H         1 UNK         0.0461 
     84 H84       -70.2967   32.8768  -71.8778 H         1 UNK         0.3453 
     85 H85       -71.8902   32.9623  -72.5815 H         1 UNK         0.3453 
     86 H86       -71.8557   28.7069  -74.5119 H         1 UNK         0.2984 
     87 H87       -71.6608   29.1603  -77.4523 H         1 UNK         0.0554 
     88 H88       -69.3834   29.1958  -78.5053 H         1 UNK         0.0847 
     89 H89       -68.7656   30.1079  -77.1283 H         1 UNK         0.0847 
     90 H90       -69.9841   30.8116  -78.1798 H         1 UNK         0.0847 
     91 H91       -71.0287   27.2056  -76.6970 H         1 UNK         0.3141 
     92 H92       -68.7288   25.6222  -75.6514 H         1 UNK         0.0743 
     93 H93       -69.5968   26.5387  -72.8577 H         1 UNK         0.0784 
     94 H94       -68.9437   24.9451  -73.2376 H         1 UNK         0.0784 
     95 H95       -67.9464   26.3753  -73.4370 H         1 UNK         0.0784 
     96 H96       -70.7088   24.6630  -75.8512 H         1 UNK         0.3213 
     97 H97       -72.7814   24.0461  -75.6311 H         1 UNK         0.0855 
     98 H98       -74.5417   25.5127  -73.5985 H         1 UNK         0.0814 
     99 H99       -73.5436   24.1117  -73.2314 H         1 UNK         0.0814 
    100 H100      -74.8833   23.9595  -74.3576 H         1 UNK         0.0814 
    101 H101      -74.8850   25.8312  -76.0357 H         1 UNK         0.3105 
    102 H102      -73.9161   27.8181  -78.6530 H         1 UNK         0.0547 
    103 H103      -73.5648   25.8298  -80.1082 H         1 UNK         0.0837 
    104 H104      -74.9762   25.0432  -79.4173 H         1 UNK         0.0837 
    105 H105      -75.1575   26.5148  -80.3738 H         1 UNK         0.0837 
    106 H106      -76.4268   26.4778  -78.0382 H         1 UNK         0.3020 
    107 H107      -77.3444   28.3185  -75.3500 H         1 UNK         0.1245 
    108 H108      -78.1799   29.3696  -78.1061 H         1 UNK         0.0781 
    109 H109      -77.6912   30.3353  -76.7399 H         1 UNK         0.0781 
    110 H110      -80.8708   30.8146  -74.7046 H         1 UNK         0.0836 
    111 H111      -79.3813   31.5183  -75.2828 H         1 UNK         0.0836 
    112 H112      -79.0182   26.9837  -77.2037 H         1 UNK         0.3022 
    113 H113      -78.7486   24.3400  -77.3840 H         1 UNK         0.0747 
    114 H114      -79.2087   22.5099  -75.7271 H         1 UNK         0.0793 
    115 H115      -77.5175   22.9846  -75.7554 H         1 UNK         0.0793 
    116 H116      -78.5500   23.5357  -74.4471 H         1 UNK         0.0793 
    117 H117      -80.7399   24.5043  -75.3041 H         1 UNK         0.3047 
    118 H118      -82.6644   26.9773  -76.4523 H         1 UNK         0.0822 
    119 H119      -84.4723   25.6776  -77.5888 H         1 UNK         0.0807 
    120 H120      -83.3101   24.4234  -78.0226 H         1 UNK         0.0807 
    121 H121      -83.1604   26.0413  -78.6941 H         1 UNK         0.0807 
    122 H122      -83.2681   24.2237  -75.5466 H         1 UNK         0.2946 
    123 H123      -84.1761   25.4081  -72.4177 H         1 UNK         0.1144 
    124 H124      -85.3013   24.0440  -74.2025 H         1 UNK         0.0793 
    125 H125      -84.9711   23.1138  -72.7549 H         1 UNK         0.0793 
    126 H126      -83.9630   22.8983  -74.1769 H         1 UNK         0.0793 
    127 H127      -82.5713   24.4253  -71.2434 H         1 UNK         0.2896 
@<TRIPOS>BOND
     1    1    2 1    
     2    1   67 1    
     3    1   68 1    
     4    1   69 1    
     5    2    3 2    
     6    2    4 am   BACKBONE|DICT|INTERRES
     7    4    5 1    
     8    4   70 1    
     9    5    6 1    
    10    5   65 1    
    11    5   71 1    
    12    6    7 1    
    13    6   72 1    
    14    6   73 1    
    15    7    8 1    
    16    8    9 1    
    17    8   74 1    
    18    8   75 1    
    19    9   10 ar   
    20    9   14 ar   
    21   10   11 ar   
    22   10   76 1    
    23   11   12 ar   
    24   11   48 1    
    25   12   13 ar   
    26   12   77 1    
    27   13   14 ar   
    28   13   15 1    
    29   14   78 1    
    30   15   16 1    
    31   15   79 1    
    32   15   80 1    
    33   16   17 1    
    34   17   18 1    
    35   17   81 1    
    36   17   82 1    
    37   18   19 1    
    38   18   22 1    
    39   18   83 1    
    40   19   20 am   BACKBONE|DICT|INTERRES
    41   19   21 2    
    42   20   84 1    
    43   20   85 1    
    44   22   23 am   BACKBONE|DICT|INTERRES
    45   22   86 1    
    46   23   24 2    
    47   23   25 1    
    48   25   26 1    
    49   25   27 1    
    50   25   87 1    
    51   26   88 1    
    52   26   89 1    
    53   26   90 1    
    54   27   28 am   BACKBONE|DICT|INTERRES
    55   27   91 1    
    56   28   29 2    
    57   28   30 1    
    58   30   31 1    
    59   30   32 1    
    60   30   92 1    
    61   31   93 1    
    62   31   94 1    
    63   31   95 1    
    64   32   33 am   BACKBONE|DICT|INTERRES
    65   32   96 1    
    66   33   34 2    
    67   33   35 1    
    68   35   36 1    
    69   35   37 1    
    70   35   97 1    
    71   36   98 1    
    72   36   99 1    
    73   36  100 1    
    74   37   38 am   BACKBONE|DICT|INTERRES
    75   37  101 1    
    76   38   39 2    
    77   38   40 1    
    78   40   41 1    
    79   40   42 1    
    80   40  102 1    
    81   41  103 1    
    82   41  104 1    
    83   41  105 1    
    84   42   43 am   BACKBONE|DICT|INTERRES
    85   42  106 1    
    86   43   44 2    
    87   43   45 1    
    88   45   46 1    
    89   45   49 1    
    90   45  107 1    
    91   46   47 1    
    92   46  108 1    
    93   46  109 1    
    94   47   48 1    
    95   48  110 1    
    96   48  111 1    
    97   49   50 am   BACKBONE|DICT|INTERRES
    98   49  112 1    
    99   50   51 2    
   100   50   52 1    
   101   52   53 1    
   102   52   54 1    
   103   52  113 1    
   104   53  114 1    
   105   53  115 1    
   106   53  116 1    
   107   54   55 am   BACKBONE|DICT|INTERRES
   108   54  117 1    
   109   55   56 2    
   110   55   57 1    
   111   57   58 1    
   112   57   59 1    
   113   57  118 1    
   114   58  119 1    
   115   58  120 1    
   116   58  121 1    
   117   59   60 am   BACKBONE|DICT|INTERRES
   118   59  122 1    
   119   60   61 2    
   120   60   62 1    
   121   62   63 1    
   122   62   64 1    
   123   62  123 1    
   124   63  124 1    
   125   63  125 1    
   126   63  126 1    
   127   64   65 am   BACKBONE|DICT|INTERRES
   128   64  127 1    
   129   65   66 2    
@<TRIPOS>SUBSTRUCTURE
     1 UNK         1 GROUP             0       ****    0 ROOT    
