@<TRIPOS>MOLECULE
3R135
127   129    1
SMALL
USER_CHARGES


@<TRIPOS>ATOM
      1 CA        -76.5665   23.3007  -73.5687 C.3       0 UNK        -0.1998 
      2 C         -77.9709   23.0040  -73.0707 C.2       0 UNK         0.4909 
      3 O         -78.4609   21.8884  -73.2461 O.2       0 UNK        -0.5240 
      4 N         -78.6199   24.0032  -72.4594 N.am      1 UNK        -0.4739 
      5 CA        -79.9874   23.9772  -71.9219 C.3       1 UNK         0.0864 
      6 C6        -80.3281   25.2927  -71.1638 C.3       11 UNK        -0.0881 
      7 S7        -79.8678   26.8153  -72.0718 S.3       11 UNK        -0.2682 
      8 C8        -79.1677   27.8707  -70.7629 C.3       11 UNK         0.0289 
      9 C9        -78.2863   28.9501  -71.3727 C.ar      11 UNK        -0.0687 
     10 C10       -78.8432   29.9285  -72.1999 C.ar      11 UNK        -0.0823 
     11 C11       -78.0271   30.8554  -72.8538 C.ar      11 UNK        -0.0830 
     12 C12       -76.6442   30.8203  -72.6506 C.ar      11 UNK        -0.1021 
     13 C13       -76.0782   29.8677  -71.7967 C.ar      11 UNK        -0.0753 
     14 C14       -76.9060   28.9399  -71.1565 C.ar      11 UNK        -0.0933 
     15 C15       -74.5680   29.7697  -71.6375 C.3       11 UNK         0.0166 
     16 S16       -73.8080   31.3058  -71.0377 S.3       11 UNK        -0.2615 
     17 C17       -72.0757   30.7645  -70.8343 C.3       11 UNK        -0.0865 
     18 CA        -71.2332   30.9460  -72.1240 C.3       10 UNK         0.0862 
     19 C         -69.7143   30.9152  -71.8025 C.2       10 UNK         0.5551 
     20 N         -69.1195   32.0649  -71.5161 N.am      10 UNK        -0.7319 
     21 O         -69.0829   29.8604  -71.7686 O.2       10 UNK        -0.5018 
     22 N         -71.5809   29.9464  -73.1455 N.am      10 UNK        -0.4509 
     23 C         -71.3309   30.0776  -74.4514 C.2       10 UNK         0.4899 
     24 O         -70.8845   31.1098  -74.9539 O.2       10 UNK        -0.4839 
     25 CA        -71.6153   28.8771  -75.3747 C.3       9 UNK         0.0222 
     26 CB        -70.3301   28.0632  -75.6202 C.3       9 UNK        -0.1966 
     27 N         -72.7292   27.9958  -74.9924 N.am      9 UNK        -0.4218 
     28 C         -72.8418   27.1574  -73.9516 C.2       9 UNK         0.5020 
     29 O         -72.0459   27.1186  -73.0128 O.2       9 UNK        -0.5274 
     30 CA        -74.0446   26.1918  -73.9561 C.3       8 UNK         0.0270 
     31 CB        -75.2429   26.7955  -73.2151 C.3       8 UNK        -0.1976 
     32 N         -74.4688   25.7915  -75.2997 N.am      8 UNK        -0.4313 
     33 C         -73.7539   25.0043  -76.1169 C.2       8 UNK         0.5041 
     34 O         -72.6636   24.5142  -75.8208 O.2       8 UNK        -0.5577 
     35 CA        -74.3575   24.7095  -77.4969 C.3       7 UNK         0.0284 
     36 CB        -75.3248   23.5228  -77.4170 C.3       7 UNK        -0.1958 
     37 N         -75.0585   25.8728  -78.0398 N.am      7 UNK        -0.4454 
     38 C         -74.4483   26.8751  -78.6860 C.2       7 UNK         0.5089 
     39 O         -73.2469   26.8904  -78.9548 O.2       7 UNK        -0.5125 
     40 CA        -75.3221   28.0754  -79.0878 C.3       6 UNK         0.0408 
     41 CB        -75.9731   27.8318  -80.4585 C.3       6 UNK        -0.1791 
     42 N         -76.3607   28.3988  -78.1061 N.am      6 UNK        -0.4762 
     43 C         -76.1310   28.8019  -76.8473 C.2       6 UNK         0.5007 
     44 O         -75.0080   28.9259  -76.3616 O.2       6 UNK        -0.5032 
     45 CA        -77.3681   29.1009  -75.9805 C.3       5 UNK         0.0783 
     46 C46       -77.7864   30.5819  -76.1819 C.3       11 UNK        -0.0857 
     47 S47       -79.3098   31.0569  -75.2955 S.3       11 UNK        -0.2512 
     48 C48       -78.6468   31.8672  -73.8044 C.3       11 UNK         0.0225 
     49 N         -78.4766   28.1674  -76.2135 N.am      5 UNK        -0.4615 
     50 C         -78.4413   26.8299  -76.1225 C.2       4 UNK         0.5053 
     51 O         -77.4158   26.1810  -75.8917 O.2       4 UNK        -0.5105 
     52 CA        -79.8062   26.1377  -76.3024 C.3       4 UNK         0.0263 
     53 CB        -80.5417   26.6094  -77.5779 C.3       4 UNK        -0.1981 
     54 N         -79.7671   24.6718  -76.2405 N.am      4 UNK        -0.4224 
     55 C         -79.2335   23.8137  -77.1255 C.2       3 UNK         0.4895 
     56 O         -78.6159   24.1642  -78.1319 O.2       3 UNK        -0.5091 
     57 CA        -79.4466   22.3026  -76.8777 C.3       3 UNK         0.0250 
     58 CB        -78.1141   21.5408  -76.7970 C.3       3 UNK        -0.1996 
     59 N         -80.2297   22.0131  -75.6728 N.am      3 UNK        -0.4254 
     60 C         -81.5696   21.9728  -75.6198 C.2       2 UNK         0.5004 
     61 O         -82.2980   22.0860  -76.6059 O.2       2 UNK        -0.5226 
     62 CA        -82.2097   21.8165  -74.2256 C.3       2 UNK         0.0269 
     63 CB        -82.5289   20.3400  -73.9414 C.3       2 UNK        -0.1926 
     64 N         -81.3790   22.3506  -73.1390 N.am      2 UNK        -0.4687 
     65 C         -81.0235   23.6378  -73.0177 C.2       1 UNK         0.5165 
     66 O         -81.4308   24.5162  -73.7784 O.2       1 UNK        -0.5079 
     67 H67       -76.0734   22.3892  -73.9054 H         1 UNK         0.0900 
     68 H68       -75.9587   23.7371  -72.7769 H         1 UNK         0.0900 
     69 H69       -76.6052   23.9960  -74.4058 H         1 UNK         0.0900 
     70 H70       -78.1744   24.9078  -72.3960 H         1 UNK         0.2959 
     71 H71       -80.0242   23.1691  -71.1880 H         1 UNK         0.1079 
     72 H72       -79.8082   25.2859  -70.2050 H         1 UNK         0.0837 
     73 H73       -81.3902   25.3388  -70.9151 H         1 UNK         0.0837 
     74 H74       -78.5919   27.2619  -70.0644 H         1 UNK         0.0685 
     75 H75       -79.9759   28.3287  -70.1910 H         1 UNK         0.0685 
     76 H76       -79.9104   29.9352  -72.3763 H         1 UNK         0.1434 
     77 H77       -76.0029   31.5214  -73.1675 H         1 UNK         0.1329 
     78 H78       -76.4708   28.1801  -70.5222 H         1 UNK         0.1335 
     79 H79       -74.3022   28.9574  -70.9595 H         1 UNK         0.0680 
     80 H80       -74.1453   29.5215  -72.6095 H         1 UNK         0.0680 
     81 H81       -72.0380   29.7314  -70.4835 H         1 UNK         0.1032 
     82 H82       -71.6615   31.3654  -70.0219 H         1 UNK         0.1032 
     83 H83       -71.4596   31.9335  -72.5325 H         1 UNK         0.0461 
     84 H84       -69.6302   32.9343  -71.5318 H         1 UNK         0.3453 
     85 H85       -68.1372   32.0659  -71.2890 H         1 UNK         0.3453 
     86 H86       -71.8395   29.0217  -72.8161 H         1 UNK         0.2984 
     87 H87       -71.9164   29.3008  -76.3342 H         1 UNK         0.0554 
     88 H88       -69.5361   28.6977  -76.0161 H         1 UNK         0.0847 
     89 H89       -70.4990   27.2652  -76.3435 H         1 UNK         0.0847 
     90 H90       -69.9544   27.6106  -74.7019 H         1 UNK         0.0847 
     91 H91       -73.5277   28.0513  -75.6216 H         1 UNK         0.3141 
     92 H92       -73.7404   25.2875  -73.4246 H         1 UNK         0.0743 
     93 H93       -74.9991   26.9548  -72.1653 H         1 UNK         0.0784 
     94 H94       -75.5351   27.7527  -73.6447 H         1 UNK         0.0784 
     95 H95       -76.1158   26.1455  -73.2461 H         1 UNK         0.0784 
     96 H96       -75.3845   26.1050  -75.6064 H         1 UNK         0.3213 
     97 H97       -73.5411   24.4344  -78.1688 H         1 UNK         0.0855 
     98 H98       -76.1759   23.7503  -76.7764 H         1 UNK         0.0814 
     99 H99       -74.8323   22.6383  -77.0107 H         1 UNK         0.0814 
    100 H100      -75.7094   23.2598  -78.4025 H         1 UNK         0.0814 
    101 H101      -76.0473   25.9505  -77.8372 H         1 UNK         0.3105 
    102 H102      -74.6668   28.9449  -79.1723 H         1 UNK         0.0547 
    103 H103      -75.2184   27.6085  -81.2140 H         1 UNK         0.0837 
    104 H104      -76.6672   26.9906  -80.4337 H         1 UNK         0.0837 
    105 H105      -76.5202   28.7102  -80.8010 H         1 UNK         0.0837 
    106 H106      -77.3200   28.3136  -78.4104 H         1 UNK         0.3020 
    107 H107      -77.0699   28.9717  -74.9389 H         1 UNK         0.1245 
    108 H108      -77.9612   30.7867  -77.2402 H         1 UNK         0.0781 
    109 H109      -76.9766   31.2494  -75.8802 H         1 UNK         0.0781 
    110 H110      -79.4596   32.3851  -73.2933 H         1 UNK         0.0836 
    111 H111      -77.9272   32.6362  -74.0898 H         1 UNK         0.0836 
    112 H112      -79.3696   28.6093  -76.3773 H         1 UNK         0.3022 
    113 H113      -80.4073   26.4418  -75.4441 H         1 UNK         0.0747 
    114 H114      -81.4778   26.0679  -77.7155 H         1 UNK         0.0793 
    115 H115      -79.9375   26.4611  -78.4736 H         1 UNK         0.0793 
    116 H116      -80.7967   27.6683  -77.5291 H         1 UNK         0.0793 
    117 H117      -80.2526   24.2859  -75.4388 H         1 UNK         0.3047 
    118 H118      -79.9868   21.9211  -77.7468 H         1 UNK         0.0822 
    119 H119      -78.2781   20.4709  -76.6674 H         1 UNK         0.0807 
    120 H120      -77.4991   21.8851  -75.9668 H         1 UNK         0.0807 
    121 H121      -77.5367   21.6658  -77.7133 H         1 UNK         0.0807 
    122 H122      -79.7078   21.8987  -74.8080 H         1 UNK         0.2946 
    123 H123      -83.1473   22.3771  -74.2368 H         1 UNK         0.1144 
    124 H124      -83.1655   19.9212  -74.7223 H         1 UNK         0.0793 
    125 H125      -83.0594   20.2229  -72.9963 H         1 UNK         0.0793 
    126 H126      -81.6239   19.7326  -73.8977 H         1 UNK         0.0793 
    127 H127      -80.9527   21.6725  -72.5222 H         1 UNK         0.2896 
@<TRIPOS>BOND
     1    1    2 1    
     2    1   67 1    
     3    1   68 1    
     4    1   69 1    
     5    2    3 2    
     6    2    4 am   BACKBONE|DICT|INTERRES
     7    4    5 1    
     8    4   70 1    
     9    5    6 1    
    10    5   65 1    
    11    5   71 1    
    12    6    7 1    
    13    6   72 1    
    14    6   73 1    
    15    7    8 1    
    16    8    9 1    
    17    8   74 1    
    18    8   75 1    
    19    9   10 ar   
    20    9   14 ar   
    21   10   11 ar   
    22   10   76 1    
    23   11   12 ar   
    24   11   48 1    
    25   12   13 ar   
    26   12   77 1    
    27   13   14 ar   
    28   13   15 1    
    29   14   78 1    
    30   15   16 1    
    31   15   79 1    
    32   15   80 1    
    33   16   17 1    
    34   17   18 1    
    35   17   81 1    
    36   17   82 1    
    37   18   19 1    
    38   18   22 1    
    39   18   83 1    
    40   19   20 am   BACKBONE|DICT|INTERRES
    41   19   21 2    
    42   20   84 1    
    43   20   85 1    
    44   22   23 am   BACKBONE|DICT|INTERRES
    45   22   86 1    
    46   23   24 2    
    47   23   25 1    
    48   25   26 1    
    49   25   27 1    
    50   25   87 1    
    51   26   88 1    
    52   26   89 1    
    53   26   90 1    
    54   27   28 am   BACKBONE|DICT|INTERRES
    55   27   91 1    
    56   28   29 2    
    57   28   30 1    
    58   30   31 1    
    59   30   32 1    
    60   30   92 1    
    61   31   93 1    
    62   31   94 1    
    63   31   95 1    
    64   32   33 am   BACKBONE|DICT|INTERRES
    65   32   96 1    
    66   33   34 2    
    67   33   35 1    
    68   35   36 1    
    69   35   37 1    
    70   35   97 1    
    71   36   98 1    
    72   36   99 1    
    73   36  100 1    
    74   37   38 am   BACKBONE|DICT|INTERRES
    75   37  101 1    
    76   38   39 2    
    77   38   40 1    
    78   40   41 1    
    79   40   42 1    
    80   40  102 1    
    81   41  103 1    
    82   41  104 1    
    83   41  105 1    
    84   42   43 am   BACKBONE|DICT|INTERRES
    85   42  106 1    
    86   43   44 2    
    87   43   45 1    
    88   45   46 1    
    89   45   49 1    
    90   45  107 1    
    91   46   47 1    
    92   46  108 1    
    93   46  109 1    
    94   47   48 1    
    95   48  110 1    
    96   48  111 1    
    97   49   50 am   BACKBONE|DICT|INTERRES
    98   49  112 1    
    99   50   51 2    
   100   50   52 1    
   101   52   53 1    
   102   52   54 1    
   103   52  113 1    
   104   53  114 1    
   105   53  115 1    
   106   53  116 1    
   107   54   55 am   BACKBONE|DICT|INTERRES
   108   54  117 1    
   109   55   56 2    
   110   55   57 1    
   111   57   58 1    
   112   57   59 1    
   113   57  118 1    
   114   58  119 1    
   115   58  120 1    
   116   58  121 1    
   117   59   60 am   BACKBONE|DICT|INTERRES
   118   59  122 1    
   119   60   61 2    
   120   60   62 1    
   121   62   63 1    
   122   62   64 1    
   123   62  123 1    
   124   63  124 1    
   125   63  125 1    
   126   63  126 1    
   127   64   65 am   BACKBONE|DICT|INTERRES
   128   64  127 1    
   129   65   66 2    
@<TRIPOS>SUBSTRUCTURE
     1 UNK         1 GROUP             0       ****    0 ROOT    
