@<TRIPOS>MOLECULE
3R135
127   129    1
SMALL
USER_CHARGES


@<TRIPOS>ATOM
      1 CA        -83.5001   22.9610  -72.0423 C.3       0 UNK        -0.1998 
      2 C         -82.0487   22.9407  -71.5672 C.2       0 UNK         0.4909 
      3 O         -81.6122   21.9312  -71.0169 O.2       0 UNK        -0.5240 
      4 N         -81.2665   24.0178  -71.7302 N.am      1 UNK        -0.4739 
      5 CA        -81.5972   25.2824  -72.4043 C.3       1 UNK         0.0864 
      6 C6        -80.5143   26.3721  -72.1755 C.3       11 UNK        -0.0881 
      7 S7        -79.9435   26.5422  -70.4466 S.3       11 UNK        -0.2682 
      8 C8        -78.1247   26.4252  -70.6334 C.3       11 UNK         0.0289 
      9 C9        -77.4348   27.7457  -70.9868 C.ar      11 UNK        -0.0687 
     10 C10       -78.0137   28.6647  -71.8676 C.ar      11 UNK        -0.0823 
     11 C11       -77.3632   29.8536  -72.1943 C.ar      11 UNK        -0.0830 
     12 C12       -76.1302   30.1446  -71.6118 C.ar      11 UNK        -0.1021 
     13 C13       -75.5120   29.2310  -70.7484 C.ar      11 UNK        -0.0753 
     14 C14       -76.1764   28.0356  -70.4450 C.ar      11 UNK        -0.0933 
     15 C15       -74.1495   29.4934  -70.0997 C.3       11 UNK         0.0166 
     16 S16       -73.2513   30.9790  -70.6811 S.3       11 UNK        -0.2615 
     17 C17       -72.3885   30.3864  -72.1819 C.3       11 UNK        -0.0865 
     18 CA        -73.0769   30.7446  -73.5370 C.3       10 UNK         0.0862 
     19 C         -72.9945   32.2455  -73.9611 C.2       10 UNK         0.5551 
     20 N         -72.9418   33.1753  -73.0181 N.am      10 UNK        -0.7319 
     21 O         -73.0288   32.5830  -75.1435 O.2       10 UNK        -0.5018 
     22 N         -72.6536   29.8206  -74.5970 N.am      10 UNK        -0.4509 
     23 C         -71.4202   29.7206  -75.1119 C.2       10 UNK         0.4899 
     24 O         -70.4704   30.4354  -74.7854 O.2       10 UNK        -0.4839 
     25 CA        -71.2203   28.5802  -76.1275 C.3       9 UNK         0.0222 
     26 CB        -69.7587   28.4228  -76.5971 C.3       9 UNK        -0.1966 
     27 N         -71.7492   27.3136  -75.6098 N.am      9 UNK        -0.4218 
     28 C         -71.3862   26.6703  -74.4880 C.2       9 UNK         0.5020 
     29 O         -70.4381   27.0014  -73.7746 O.2       9 UNK        -0.5274 
     30 CA        -72.2495   25.4711  -74.0567 C.3       8 UNK         0.0270 
     31 CB        -73.1499   25.8777  -72.8762 C.3       8 UNK        -0.1976 
     32 N         -73.0834   24.9351  -75.1370 N.am      8 UNK        -0.4313 
     33 C         -72.6202   24.2100  -76.1656 C.2       8 UNK         0.5041 
     34 O         -71.4475   23.8502  -76.2758 O.2       8 UNK        -0.5577 
     35 CA        -73.6250   23.8512  -77.2749 C.3       7 UNK         0.0284 
     36 CB        -74.4593   22.6258  -76.8719 C.3       7 UNK        -0.1958 
     37 N         -74.5054   24.9696  -77.6347 N.am      7 UNK        -0.4454 
     38 C         -74.0802   26.1129  -78.1949 C.2       7 UNK         0.5089 
     39 O         -72.9049   26.3440  -78.4760 O.2       7 UNK        -0.5125 
     40 CA        -75.1330   27.2012  -78.4541 C.3       6 UNK         0.0408 
     41 CB        -75.8706   26.9491  -79.7785 C.3       6 UNK        -0.1791 
     42 N         -76.0967   27.3088  -77.3598 N.am      6 UNK        -0.4762 
     43 C         -75.8120   27.8006  -76.1444 C.2       6 UNK         0.5007 
     44 O         -74.7061   28.2387  -75.8231 O.2       6 UNK        -0.5032 
     45 CA        -76.9453   27.7373  -75.0999 C.3       5 UNK         0.0783 
     46 C46       -77.9664   28.8891  -75.2933 C.3       11 UNK        -0.0857 
     47 S47       -77.2978   30.5361  -74.8663 S.3       11 UNK        -0.2512 
     48 C48       -77.9801   30.8115  -73.2002 C.3       11 UNK         0.0225 
     49 N         -77.6060   26.4256  -75.1128 N.am      5 UNK        -0.4615 
     50 C         -76.9906   25.2646  -74.8304 C.2       4 UNK         0.5053 
     51 O         -75.8293   25.1926  -74.4355 O.2       4 UNK        -0.5105 
     52 CA        -77.7570   23.9534  -75.0857 C.3       4 UNK         0.0263 
     53 CB        -78.2983   23.3680  -73.7748 C.3       4 UNK        -0.1981 
     54 N         -78.8280   24.0870  -76.0762 N.am      4 UNK        -0.4224 
     55 C         -78.6059   24.3795  -77.3686 C.2       3 UNK         0.4895 
     56 O         -77.4759   24.4921  -77.8475 O.2       3 UNK        -0.5091 
     57 CA        -79.8235   24.6416  -78.2754 C.3       3 UNK         0.0250 
     58 CB        -80.1053   23.4142  -79.1561 C.3       3 UNK        -0.1996 
     59 N         -81.0505   25.0170  -77.5644 N.am      3 UNK        -0.4254 
     60 C         -81.1975   26.0806  -76.7611 C.2       2 UNK         0.5004 
     61 O         -80.2956   26.8873  -76.5247 O.2       2 UNK        -0.5226 
     62 CA        -82.5492   26.2371  -76.0330 C.3       2 UNK         0.0269 
     63 CB        -83.6559   25.2758  -76.5266 C.3       2 UNK        -0.1926 
     64 N         -82.3816   26.1193  -74.5772 N.am      2 UNK        -0.4687 
     65 C         -81.8079   25.0964  -73.9244 C.2       1 UNK         0.5165 
     66 O         -81.4005   24.0744  -74.4846 O.2       1 UNK        -0.5079 
     67 H67       -83.5518   22.8210  -73.1216 H         1 UNK         0.0900 
     68 H68       -84.0609   22.1508  -71.5767 H         1 UNK         0.0900 
     69 H69       -84.0008   23.8920  -71.7813 H         1 UNK         0.0900 
     70 H70       -80.3226   23.9692  -71.3774 H         1 UNK         0.2959 
     71 H71       -82.5324   25.6492  -71.9773 H         1 UNK         0.1079 
     72 H72       -80.9134   27.3420  -72.4775 H         1 UNK         0.0837 
     73 H73       -79.6479   26.1998  -72.8163 H         1 UNK         0.0837 
     74 H74       -77.7283   26.0519  -69.6880 H         1 UNK         0.0685 
     75 H75       -77.8710   25.6748  -71.3832 H         1 UNK         0.0685 
     76 H76       -78.9696   28.4631  -72.3192 H         1 UNK         0.1434 
     77 H77       -75.6586   31.0847  -71.8553 H         1 UNK         0.1329 
     78 H78       -75.7098   27.3270  -69.7740 H         1 UNK         0.1335 
     79 H79       -73.5114   28.6167  -70.2199 H         1 UNK         0.0680 
     80 H80       -74.3093   29.6063  -69.0266 H         1 UNK         0.0680 
     81 H81       -71.3685   30.7744  -72.1673 H         1 UNK         0.1032 
     82 H82       -72.2805   29.3036  -72.1004 H         1 UNK         0.1032 
     83 H83       -74.1407   30.5398  -73.4400 H         1 UNK         0.0461 
     84 H84       -72.9068   34.1482  -73.2781 H         1 UNK         0.3453 
     85 H85       -72.9437   32.9061  -72.0447 H         1 UNK         0.3453 
     86 H86       -73.3839   29.2221  -74.9782 H         1 UNK         0.2984 
     87 H87       -71.8246   28.8311  -77.0006 H         1 UNK         0.0554 
     88 H88       -69.4032   29.3368  -77.0742 H         1 UNK         0.0847 
     89 H89       -69.6628   27.6178  -77.3257 H         1 UNK         0.0847 
     90 H90       -69.0847   28.2070  -75.7675 H         1 UNK         0.0847 
     91 H91       -72.5544   26.9542  -76.1048 H         1 UNK         0.3141 
     92 H92       -71.5744   24.6823  -73.7184 H         1 UNK         0.0743 
     93 H93       -73.8418   26.6751  -73.1529 H         1 UNK         0.0784 
     94 H94       -73.7391   25.0341  -72.5163 H         1 UNK         0.0784 
     95 H95       -72.5563   26.2400  -72.0358 H         1 UNK         0.0784 
     96 H96       -74.0822   25.1265  -75.0717 H         1 UNK         0.3213 
     97 H97       -73.0549   23.5903  -78.1694 H         1 UNK         0.0855 
     98 H98       -74.9145   22.7543  -75.8910 H         1 UNK         0.0814 
     99 H99       -73.8301   21.7367  -76.8150 H         1 UNK         0.0814 
    100 H100      -75.2505   22.4189  -77.5930 H         1 UNK         0.0814 
    101 H101      -75.5034   24.8453  -77.4932 H         1 UNK         0.3105 
    102 H102      -74.6107   28.1569  -78.5380 H         1 UNK         0.0547 
    103 H103      -75.1675   26.9072  -80.6115 H         1 UNK         0.0837 
    104 H104      -76.4177   26.0061  -79.7697 H         1 UNK         0.0837 
    105 H105      -76.5806   27.7471  -79.9958 H         1 UNK         0.0837 
    106 H106      -77.0128   26.9137  -77.5204 H         1 UNK         0.3020 
    107 H107      -76.4767   27.8471  -74.1192 H         1 UNK         0.1245 
    108 H108      -78.8572   28.7078  -74.6910 H         1 UNK         0.0781 
    109 H109      -78.3239   28.9203  -76.3244 H         1 UNK         0.0781 
    110 H110      -79.0663   30.7092  -73.2230 H         1 UNK         0.0836 
    111 H111      -77.7783   31.8410  -72.9006 H         1 UNK         0.0836 
    112 H112      -78.5528   26.4070  -75.4771 H         1 UNK         0.3022 
    113 H113      -77.0466   23.2327  -75.4888 H         1 UNK         0.0747 
    114 H114      -78.8425   22.4389  -73.9451 H         1 UNK         0.0793 
    115 H115      -77.4839   23.1469  -73.0836 H         1 UNK         0.0793 
    116 H116      -78.9672   24.0603  -73.2718 H         1 UNK         0.0793 
    117 H117      -79.7823   24.0160  -75.7354 H         1 UNK         0.3047 
    118 H118      -79.5580   25.4765  -78.9272 H         1 UNK         0.0822 
    119 H119      -80.8953   23.6164  -79.8798 H         1 UNK         0.0807 
    120 H120      -80.4056   22.5509  -78.5608 H         1 UNK         0.0807 
    121 H121      -79.2175   23.1270  -79.7217 H         1 UNK         0.0807 
    122 H122      -81.8351   24.3889  -77.6609 H         1 UNK         0.2946 
    123 H123      -82.8805   27.2572  -76.2352 H         1 UNK         0.1144 
    124 H124      -84.6030   25.4893  -76.0307 H         1 UNK         0.0793 
    125 H125      -83.4175   24.2293  -76.3331 H         1 UNK         0.0793 
    126 H126      -83.8292   25.3881  -77.5978 H         1 UNK         0.0793 
    127 H127      -82.6582   26.9345  -74.0474 H         1 UNK         0.2896 
@<TRIPOS>BOND
     1    1    2 1    
     2    1   67 1    
     3    1   68 1    
     4    1   69 1    
     5    2    3 2    
     6    2    4 am   BACKBONE|DICT|INTERRES
     7    4    5 1    
     8    4   70 1    
     9    5    6 1    
    10    5   65 1    
    11    5   71 1    
    12    6    7 1    
    13    6   72 1    
    14    6   73 1    
    15    7    8 1    
    16    8    9 1    
    17    8   74 1    
    18    8   75 1    
    19    9   10 ar   
    20    9   14 ar   
    21   10   11 ar   
    22   10   76 1    
    23   11   12 ar   
    24   11   48 1    
    25   12   13 ar   
    26   12   77 1    
    27   13   14 ar   
    28   13   15 1    
    29   14   78 1    
    30   15   16 1    
    31   15   79 1    
    32   15   80 1    
    33   16   17 1    
    34   17   18 1    
    35   17   81 1    
    36   17   82 1    
    37   18   19 1    
    38   18   22 1    
    39   18   83 1    
    40   19   20 am   BACKBONE|DICT|INTERRES
    41   19   21 2    
    42   20   84 1    
    43   20   85 1    
    44   22   23 am   BACKBONE|DICT|INTERRES
    45   22   86 1    
    46   23   24 2    
    47   23   25 1    
    48   25   26 1    
    49   25   27 1    
    50   25   87 1    
    51   26   88 1    
    52   26   89 1    
    53   26   90 1    
    54   27   28 am   BACKBONE|DICT|INTERRES
    55   27   91 1    
    56   28   29 2    
    57   28   30 1    
    58   30   31 1    
    59   30   32 1    
    60   30   92 1    
    61   31   93 1    
    62   31   94 1    
    63   31   95 1    
    64   32   33 am   BACKBONE|DICT|INTERRES
    65   32   96 1    
    66   33   34 2    
    67   33   35 1    
    68   35   36 1    
    69   35   37 1    
    70   35   97 1    
    71   36   98 1    
    72   36   99 1    
    73   36  100 1    
    74   37   38 am   BACKBONE|DICT|INTERRES
    75   37  101 1    
    76   38   39 2    
    77   38   40 1    
    78   40   41 1    
    79   40   42 1    
    80   40  102 1    
    81   41  103 1    
    82   41  104 1    
    83   41  105 1    
    84   42   43 am   BACKBONE|DICT|INTERRES
    85   42  106 1    
    86   43   44 2    
    87   43   45 1    
    88   45   46 1    
    89   45   49 1    
    90   45  107 1    
    91   46   47 1    
    92   46  108 1    
    93   46  109 1    
    94   47   48 1    
    95   48  110 1    
    96   48  111 1    
    97   49   50 am   BACKBONE|DICT|INTERRES
    98   49  112 1    
    99   50   51 2    
   100   50   52 1    
   101   52   53 1    
   102   52   54 1    
   103   52  113 1    
   104   53  114 1    
   105   53  115 1    
   106   53  116 1    
   107   54   55 am   BACKBONE|DICT|INTERRES
   108   54  117 1    
   109   55   56 2    
   110   55   57 1    
   111   57   58 1    
   112   57   59 1    
   113   57  118 1    
   114   58  119 1    
   115   58  120 1    
   116   58  121 1    
   117   59   60 am   BACKBONE|DICT|INTERRES
   118   59  122 1    
   119   60   61 2    
   120   60   62 1    
   121   62   63 1    
   122   62   64 1    
   123   62  123 1    
   124   63  124 1    
   125   63  125 1    
   126   63  126 1    
   127   64   65 am   BACKBONE|DICT|INTERRES
   128   64  127 1    
   129   65   66 2    
@<TRIPOS>SUBSTRUCTURE
     1 UNK         1 GROUP             0       ****    0 ROOT    
