@<TRIPOS>MOLECULE
3R135
127   129    1
SMALL
USER_CHARGES


@<TRIPOS>ATOM
      1 CA        -84.9979   27.4254  -69.6798 C.3       0 UNK        -0.1998 
      2 C         -84.5290   28.3175  -70.8194 C.2       0 UNK         0.4909 
      3 O         -85.2868   28.5619  -71.7588 O.2       0 UNK        -0.5240 
      4 N         -83.2845   28.8065  -70.7448 N.am      1 UNK        -0.4739 
      5 CA        -82.6517   29.6537  -71.7655 C.3       1 UNK         0.0864 
      6 C6        -81.4667   30.4624  -71.1793 C.3       11 UNK        -0.0881 
      7 S7        -80.1450   29.4333  -70.4349 S.3       11 UNK        -0.2682 
      8 C8        -78.6481   30.0285  -71.2880 C.3       11 UNK         0.0289 
      9 C9        -78.0966   29.0083  -72.2747 C.ar      11 UNK        -0.0687 
     10 C10       -78.4815   29.0301  -73.6201 C.ar      11 UNK        -0.0823 
     11 C11       -77.9061   28.1435  -74.5389 C.ar      11 UNK        -0.0830 
     12 C12       -76.9393   27.2339  -74.0979 C.ar      11 UNK        -0.1021 
     13 C13       -76.5574   27.1932  -72.7552 C.ar      11 UNK        -0.0753 
     14 C14       -77.1482   28.0747  -71.8461 C.ar      11 UNK        -0.0933 
     15 C15       -75.5011   26.2004  -72.2935 C.3       11 UNK         0.0166 
     16 S16       -73.8167   26.8035  -72.6132 S.3       11 UNK        -0.2615 
     17 C17       -73.6264   28.1062  -71.3453 C.3       11 UNK        -0.0865 
     18 CA        -73.8197   29.5453  -71.9086 C.3       10 UNK         0.0862 
     19 C         -73.8246   30.6311  -70.7897 C.2       10 UNK         0.5551 
     20 N         -73.3299   31.8377  -71.0382 N.am      10 UNK        -0.7319 
     21 O         -74.3148   30.3909  -69.6889 O.2       10 UNK        -0.5018 
     22 N         -72.9497   29.8394  -73.0625 N.am      10 UNK        -0.4509 
     23 C         -71.6092   29.8757  -73.0721 C.2       10 UNK         0.4899 
     24 O         -70.9051   29.7192  -72.0732 O.2       10 UNK        -0.4839 
     25 CA        -70.9595   30.1383  -74.4472 C.3       9 UNK         0.0222 
     26 CB        -69.4397   29.8648  -74.4675 C.3       9 UNK        -0.1966 
     27 N         -71.6513   29.4266  -75.5327 N.am      9 UNK        -0.4218 
     28 C         -71.7670   28.0977  -75.6906 C.2       9 UNK         0.5020 
     29 O         -71.1948   27.2658  -74.9825 O.2       9 UNK        -0.5274 
     30 CA        -72.7401   27.6294  -76.7928 C.3       8 UNK         0.0270 
     31 CB        -72.7973   28.5752  -78.0151 C.3       8 UNK        -0.1976 
     32 N         -72.5033   26.2449  -77.2131 N.am      8 UNK        -0.4313 
     33 C         -71.4241   25.7482  -77.8369 C.2       8 UNK         0.5041 
     34 O         -70.4431   26.4116  -78.1776 O.2       8 UNK        -0.5577 
     35 CA        -71.4709   24.2497  -78.1735 C.3       7 UNK         0.0284 
     36 CB        -71.1724   23.3957  -76.9292 C.3       7 UNK        -0.1958 
     37 N         -72.7794   23.8876  -78.7222 N.am      7 UNK        -0.4454 
     38 C         -73.1063   23.9714  -80.0204 C.2       7 UNK         0.5089 
     39 O         -72.3042   24.2429  -80.9145 O.2       7 UNK        -0.5125 
     40 CA        -74.5821   23.7206  -80.3884 C.3       6 UNK         0.0408 
     41 CB        -74.8154   22.2328  -80.6947 C.3       6 UNK        -0.1791 
     42 N         -75.5089   24.1530  -79.3391 N.am      6 UNK        -0.4762 
     43 C         -75.7352   25.4315  -78.9993 C.2       6 UNK         0.5007 
     44 O         -75.2935   26.3896  -79.6328 O.2       6 UNK        -0.5032 
     45 CA        -76.5613   25.6923  -77.7215 C.3       5 UNK         0.0783 
     46 C46       -77.9579   26.2655  -78.0681 C.3       11 UNK        -0.0857 
     47 S47       -78.9783   26.6103  -76.5944 S.3       11 UNK        -0.2512 
     48 C48       -78.2906   28.1962  -76.0134 C.3       11 UNK         0.0225 
     49 N         -76.6390   24.5260  -76.8306 N.am      5 UNK        -0.4615 
     50 C         -75.6160   24.0004  -76.1484 C.2       4 UNK         0.5053 
     51 O         -74.4598   24.4099  -76.2645 O.2       4 UNK        -0.5105 
     52 CA        -75.9389   22.8289  -75.1962 C.3       4 UNK         0.0263 
     53 CB        -74.6965   22.3528  -74.4202 C.3       4 UNK        -0.1981 
     54 N         -77.0021   23.1492  -74.2358 N.am      4 UNK        -0.4224 
     55 C         -78.3098   23.2525  -74.5101 C.2       3 UNK         0.4895 
     56 O         -78.7806   23.0688  -75.6344 O.2       3 UNK        -0.5091 
     57 CA        -79.2536   23.6681  -73.3726 C.3       3 UNK         0.0250 
     58 CB        -78.5625   23.8888  -72.0062 C.3       3 UNK        -0.1996 
     59 N         -79.9482   24.8734  -73.8165 N.am      3 UNK        -0.4254 
     60 C         -81.0284   25.4193  -73.2537 C.2       2 UNK         0.5004 
     61 O         -81.5902   24.9793  -72.2464 O.2       2 UNK        -0.5226 
     62 CA        -81.5959   26.6593  -73.9490 C.3       2 UNK         0.0269 
     63 CB        -82.6892   26.2828  -74.9643 C.3       2 UNK        -0.1926 
     64 N         -82.1334   27.5469  -72.9286 N.am      2 UNK        -0.4687 
     65 C         -82.2274   28.8768  -73.0303 C.2       1 UNK         0.5165 
     66 O         -81.9739   29.5001  -74.0628 O.2       1 UNK        -0.5079 
     67 H67       -85.2558   26.4370  -70.0593 H         1 UNK         0.0900 
     68 H68       -84.2315   27.3051  -68.9141 H         1 UNK         0.0900 
     69 H69       -85.8834   27.8521  -69.2089 H         1 UNK         0.0900 
     70 H70       -82.6980   28.5753  -69.9543 H         1 UNK         0.2959 
     71 H71       -83.3999   30.3766  -72.0999 H         1 UNK         0.1079 
     72 H72       -81.8391   31.1297  -70.4004 H         1 UNK         0.0837 
     73 H73       -81.0535   31.1224  -71.9441 H         1 UNK         0.0837 
     74 H74       -78.8321   30.9778  -71.7925 H         1 UNK         0.0685 
     75 H75       -77.8913   30.2463  -70.5321 H         1 UNK         0.0685 
     76 H76       -79.2143   29.7526  -73.9531 H         1 UNK         0.1434 
     77 H77       -76.4759   26.5578  -74.8010 H         1 UNK         0.1329 
     78 H78       -76.8486   28.0553  -70.8073 H         1 UNK         0.1335 
     79 H79       -75.6287   25.2596  -72.8286 H         1 UNK         0.0680 
     80 H80       -75.6194   25.9678  -71.2341 H         1 UNK         0.0680 
     81 H81       -72.6349   28.0058  -70.9015 H         1 UNK         0.1032 
     82 H82       -74.3299   27.9110  -70.5345 H         1 UNK         0.1032 
     83 H83       -74.8291   29.5912  -72.3165 H         1 UNK         0.0461 
     84 H84       -72.9332   32.0500  -71.9393 H         1 UNK         0.3453 
     85 H85       -73.3463   32.5382  -70.3138 H         1 UNK         0.3453 
     86 H86       -73.4344   29.9949  -73.9333 H         1 UNK         0.2984 
     87 H87       -71.0986   31.2018  -74.6468 H         1 UNK         0.0554 
     88 H88       -68.9191   30.5066  -73.7557 H         1 UNK         0.0847 
     89 H89       -69.0135   30.0608  -75.4513 H         1 UNK         0.0847 
     90 H90       -69.2075   28.8335  -74.2005 H         1 UNK         0.0847 
     91 H91       -72.1514   30.0147  -76.1851 H         1 UNK         0.3141 
     92 H92       -73.7293   27.6243  -76.3323 H         1 UNK         0.0743 
     93 H93       -71.8069   28.7542  -78.4360 H         1 UNK         0.0784 
     94 H94       -73.4195   28.1586  -78.8070 H         1 UNK         0.0784 
     95 H95       -73.2281   29.5427  -77.7565 H         1 UNK         0.0784 
     96 H96       -73.2057   25.5775  -76.8989 H         1 UNK         0.3213 
     97 H97       -70.6954   24.0443  -78.9151 H         1 UNK         0.0855 
     98 H98       -71.8998   23.5606  -76.1336 H         1 UNK         0.0814 
     99 H99       -70.1891   23.6359  -76.5228 H         1 UNK         0.0814 
    100 H100      -71.1733   22.3323  -77.1690 H         1 UNK         0.0814 
    101 H101      -73.5142   23.7089  -78.0495 H         1 UNK         0.3105 
    102 H102      -74.8013   24.2925  -81.2927 H         1 UNK         0.0547 
    103 H103      -74.1536   21.8918  -81.4923 H         1 UNK         0.0837 
    104 H104      -74.6255   21.6039  -79.8240 H         1 UNK         0.0837 
    105 H105      -75.8379   22.0506  -81.0256 H         1 UNK         0.0837 
    106 H106      -75.9394   23.4308  -78.7797 H         1 UNK         0.3020 
    107 H107      -76.0138   26.4664  -77.1802 H         1 UNK         0.1245 
    108 H108      -77.8687   27.1823  -78.6545 H         1 UNK         0.0781 
    109 H109      -78.5099   25.5604  -78.6926 H         1 UNK         0.0781 
    110 H110      -79.0292   28.9789  -76.1940 H         1 UNK         0.0836 
    111 H111      -77.4096   28.4695  -76.5950 H         1 UNK         0.0836 
    112 H112      -77.5636   24.1347  -76.6703 H         1 UNK         0.3022 
    113 H113      -76.2794   21.9990  -75.8189 H         1 UNK         0.0747 
    114 H114      -74.9270   21.4976  -73.7848 H         1 UNK         0.0793 
    115 H115      -73.9045   22.0406  -75.1024 H         1 UNK         0.0793 
    116 H116      -74.2878   23.1425  -73.7879 H         1 UNK         0.0793 
    117 H117      -76.7052   23.3326  -73.2890 H         1 UNK         0.3047 
    118 H118      -79.9874   22.8667  -73.2654 H         1 UNK         0.0822 
    119 H119      -79.2952   24.0625  -71.2183 H         1 UNK         0.0807 
    120 H120      -77.8996   24.7518  -72.0216 H         1 UNK         0.0807 
    121 H121      -77.9848   23.0158  -71.6998 H         1 UNK         0.0807 
    122 H122      -79.5873   25.2784  -74.6729 H         1 UNK         0.2946 
    123 H123      -80.7834   27.1769  -74.4607 H         1 UNK         0.1144 
    124 H124      -82.2955   25.6125  -75.7296 H         1 UNK         0.0793 
    125 H125      -83.0769   27.1641  -75.4756 H         1 UNK         0.0793 
    126 H126      -83.5275   25.7774  -74.4831 H         1 UNK         0.0793 
    127 H127      -82.3280   27.1035  -72.0396 H         1 UNK         0.2896 
@<TRIPOS>BOND
     1    1    2 1    
     2    1   67 1    
     3    1   68 1    
     4    1   69 1    
     5    2    3 2    
     6    2    4 am   BACKBONE|DICT|INTERRES
     7    4    5 1    
     8    4   70 1    
     9    5    6 1    
    10    5   65 1    
    11    5   71 1    
    12    6    7 1    
    13    6   72 1    
    14    6   73 1    
    15    7    8 1    
    16    8    9 1    
    17    8   74 1    
    18    8   75 1    
    19    9   10 ar   
    20    9   14 ar   
    21   10   11 ar   
    22   10   76 1    
    23   11   12 ar   
    24   11   48 1    
    25   12   13 ar   
    26   12   77 1    
    27   13   14 ar   
    28   13   15 1    
    29   14   78 1    
    30   15   16 1    
    31   15   79 1    
    32   15   80 1    
    33   16   17 1    
    34   17   18 1    
    35   17   81 1    
    36   17   82 1    
    37   18   19 1    
    38   18   22 1    
    39   18   83 1    
    40   19   20 am   BACKBONE|DICT|INTERRES
    41   19   21 2    
    42   20   84 1    
    43   20   85 1    
    44   22   23 am   BACKBONE|DICT|INTERRES
    45   22   86 1    
    46   23   24 2    
    47   23   25 1    
    48   25   26 1    
    49   25   27 1    
    50   25   87 1    
    51   26   88 1    
    52   26   89 1    
    53   26   90 1    
    54   27   28 am   BACKBONE|DICT|INTERRES
    55   27   91 1    
    56   28   29 2    
    57   28   30 1    
    58   30   31 1    
    59   30   32 1    
    60   30   92 1    
    61   31   93 1    
    62   31   94 1    
    63   31   95 1    
    64   32   33 am   BACKBONE|DICT|INTERRES
    65   32   96 1    
    66   33   34 2    
    67   33   35 1    
    68   35   36 1    
    69   35   37 1    
    70   35   97 1    
    71   36   98 1    
    72   36   99 1    
    73   36  100 1    
    74   37   38 am   BACKBONE|DICT|INTERRES
    75   37  101 1    
    76   38   39 2    
    77   38   40 1    
    78   40   41 1    
    79   40   42 1    
    80   40  102 1    
    81   41  103 1    
    82   41  104 1    
    83   41  105 1    
    84   42   43 am   BACKBONE|DICT|INTERRES
    85   42  106 1    
    86   43   44 2    
    87   43   45 1    
    88   45   46 1    
    89   45   49 1    
    90   45  107 1    
    91   46   47 1    
    92   46  108 1    
    93   46  109 1    
    94   47   48 1    
    95   48  110 1    
    96   48  111 1    
    97   49   50 am   BACKBONE|DICT|INTERRES
    98   49  112 1    
    99   50   51 2    
   100   50   52 1    
   101   52   53 1    
   102   52   54 1    
   103   52  113 1    
   104   53  114 1    
   105   53  115 1    
   106   53  116 1    
   107   54   55 am   BACKBONE|DICT|INTERRES
   108   54  117 1    
   109   55   56 2    
   110   55   57 1    
   111   57   58 1    
   112   57   59 1    
   113   57  118 1    
   114   58  119 1    
   115   58  120 1    
   116   58  121 1    
   117   59   60 am   BACKBONE|DICT|INTERRES
   118   59  122 1    
   119   60   61 2    
   120   60   62 1    
   121   62   63 1    
   122   62   64 1    
   123   62  123 1    
   124   63  124 1    
   125   63  125 1    
   126   63  126 1    
   127   64   65 am   BACKBONE|DICT|INTERRES
   128   64  127 1    
   129   65   66 2    
@<TRIPOS>SUBSTRUCTURE
     1 UNK         1 GROUP             0       ****    0 ROOT    
