@<TRIPOS>MOLECULE
3R135
127   129    1
SMALL
USER_CHARGES


@<TRIPOS>ATOM
      1 CA        -80.5385   23.0253  -69.1799 C.3       0 UNK        -0.1998 
      2 C         -80.7803   23.7358  -70.5029 C.2       0 UNK         0.4909 
      3 O         -80.2527   23.2984  -71.5241 O.2       0 UNK        -0.5240 
      4 N         -81.5905   24.8052  -70.4767 N.am      1 UNK        -0.4739 
      5 CA        -81.9889   25.7427  -71.5457 C.3       1 UNK         0.0864 
      6 C6        -80.8683   26.7347  -71.9702 C.3       11 UNK        -0.0881 
      7 S7        -79.5971   26.0524  -73.0899 S.3       11 UNK        -0.2682 
      8 C8        -78.0600   26.3817  -72.1628 C.3       11 UNK         0.0289 
      9 C9        -77.5530   27.8244  -72.2230 C.ar      11 UNK        -0.0687 
     10 C10       -78.0292   28.7550  -73.1569 C.ar      11 UNK        -0.0823 
     11 C11       -77.4714   30.0323  -73.2411 C.ar      11 UNK        -0.0830 
     12 C12       -76.4745   30.4092  -72.3406 C.ar      11 UNK        -0.1021 
     13 C13       -75.9759   29.4920  -71.4143 C.ar      11 UNK        -0.0753 
     14 C14       -76.5217   28.2054  -71.3578 C.ar      11 UNK        -0.0933 
     15 C15       -74.8204   29.8784  -70.5045 C.3       11 UNK         0.0166 
     16 S16       -73.2141   29.6437  -71.3347 S.3       11 UNK        -0.2615 
     17 C17       -73.0229   31.1900  -72.2943 C.3       11 UNK        -0.0865 
     18 CA        -73.3180   31.0440  -73.8187 C.3       10 UNK         0.0862 
     19 C         -73.2846   32.4094  -74.5694 C.2       10 UNK         0.5551 
     20 N         -72.8718   32.4605  -75.8303 N.am      10 UNK        -0.7319 
     21 O         -73.6641   33.4370  -74.0127 O.2       10 UNK        -0.5018 
     22 N         -72.5601   29.9677  -74.4751 N.am      10 UNK        -0.4509 
     23 C         -71.2292   29.8563  -74.5718 C.2       10 UNK         0.4899 
     24 O         -70.4280   30.6721  -74.1129 O.2       10 UNK        -0.4839 
     25 CA        -70.7259   28.6108  -75.3261 C.3       9 UNK         0.0222 
     26 CB        -69.2080   28.3711  -75.1802 C.3       9 UNK        -0.1966 
     27 N         -71.5019   27.4162  -74.9742 N.am      9 UNK        -0.4218 
     28 C         -71.5732   26.8018  -73.7824 C.2       9 UNK         0.5020 
     29 O         -70.8754   27.0890  -72.8091 O.2       9 UNK        -0.5274 
     30 CA        -72.6135   25.6740  -73.6432 C.3       8 UNK         0.0270 
     31 CB        -73.8643   26.1921  -72.9120 C.3       8 UNK        -0.1976 
     32 N         -73.0230   25.0965  -74.9253 N.am      8 UNK        -0.4313 
     33 C         -72.2503   24.3377  -75.7142 C.2       8 UNK         0.5041 
     34 O         -71.1111   23.9753  -75.4187 O.2       8 UNK        -0.5577 
     35 CA        -72.8404   23.9454  -77.0776 C.3       7 UNK         0.0284 
     36 CB        -73.7675   22.7261  -76.9454 C.3       7 UNK        -0.1958 
     37 N         -73.5667   25.0562  -77.6997 N.am      7 UNK        -0.4454 
     38 C         -72.9822   26.1112  -78.2848 C.2       7 UNK         0.5089 
     39 O         -71.7636   26.2507  -78.3855 O.2       7 UNK        -0.5125 
     40 CA        -73.9110   27.2044  -78.8433 C.3       6 UNK         0.0408 
     41 CB        -74.3028   26.8865  -80.2948 C.3       6 UNK        -0.1791 
     42 N         -75.1226   27.3998  -78.0426 N.am      6 UNK        -0.4762 
     43 C         -75.1374   27.9385  -76.8146 C.2       6 UNK         0.5007 
     44 O         -74.1266   28.3274  -76.2272 O.2       6 UNK        -0.5032 
     45 CA        -76.5033   27.9899  -76.0993 C.3       5 UNK         0.0783 
     46 C46       -77.3448   29.2238  -76.5234 C.3       11 UNK        -0.0857 
     47 S47       -76.7816   30.8005  -75.7939 S.3       11 UNK        -0.2512 
     48 C48       -77.8874   30.9804  -74.3532 C.3       11 UNK         0.0225 
     49 N         -77.2829   26.7523  -76.2495 N.am      5 UNK        -0.4615 
     50 C         -76.8794   25.5178  -75.9178 C.2       4 UNK         0.5053 
     51 O         -75.7535   25.2734  -75.4871 O.2       4 UNK        -0.5105 
     52 CA        -77.8788   24.3592  -76.1030 C.3       4 UNK         0.0263 
     53 CB        -77.7227   23.2904  -75.0050 C.3       4 UNK        -0.1981 
     54 N         -79.2738   24.8063  -76.1229 N.am      4 UNK        -0.4224 
     55 C         -79.9784   25.1256  -77.2154 C.2       3 UNK         0.4895 
     56 O         -79.4964   25.1382  -78.3490 O.2       3 UNK        -0.5091 
     57 CA        -81.4545   25.5273  -77.0003 C.3       3 UNK         0.0250 
     58 CB        -82.3119   25.3302  -78.2687 C.3       3 UNK        -0.1996 
     59 N         -82.0938   24.8849  -75.8411 N.am      3 UNK        -0.4254 
     60 C         -82.2618   23.5720  -75.6158 C.2       2 UNK         0.5004 
     61 O         -81.8736   22.6917  -76.3857 O.2       2 UNK        -0.5226 
     62 CA        -82.9725   23.1824  -74.3010 C.3       2 UNK         0.0269 
     63 CB        -82.9069   21.6698  -74.0173 C.3       2 UNK        -0.1926 
     64 N         -82.4265   23.8953  -73.1428 N.am      2 UNK        -0.4687 
     65 C         -82.7323   25.1400  -72.7626 C.2       1 UNK         0.5165 
     66 O         -83.5587   25.8308  -73.3608 O.2       1 UNK        -0.5079 
     67 H67       -81.0650   23.5042  -68.3545 H         1 UNK         0.0900 
     68 H68       -79.4741   23.0231  -68.9467 H         1 UNK         0.0900 
     69 H69       -80.8755   21.9910  -69.2430 H         1 UNK         0.0900 
     70 H70       -81.9993   25.0369  -69.5817 H         1 UNK         0.2959 
     71 H71       -82.7498   26.3553  -71.0587 H         1 UNK         0.1079 
     72 H72       -81.3145   27.5918  -72.4779 H         1 UNK         0.0837 
     73 H73       -80.3900   27.1495  -71.0818 H         1 UNK         0.0837 
     74 H74       -78.2004   26.0767  -71.1246 H         1 UNK         0.0685 
     75 H75       -77.2806   25.7364  -72.5699 H         1 UNK         0.0685 
     76 H76       -78.7950   28.4790  -73.8661 H         1 UNK         0.1434 
     77 H77       -76.0450   31.3995  -72.4009 H         1 UNK         0.1329 
     78 H78       -76.1234   27.4885  -70.6528 H         1 UNK         0.1335 
     79 H79       -74.8375   29.2622  -69.6043 H         1 UNK         0.0680 
     80 H80       -74.9272   30.9096  -70.1648 H         1 UNK         0.0680 
     81 H81       -73.6651   31.9541  -71.8540 H         1 UNK         0.1032 
     82 H82       -72.0044   31.5512  -72.1455 H         1 UNK         0.1032 
     83 H83       -74.3511   30.7197  -73.9167 H         1 UNK         0.0461 
     84 H84       -72.8629   33.3446  -76.3137 H         1 UNK         0.3453 
     85 H85       -72.5788   31.6205  -76.3021 H         1 UNK         0.3453 
     86 H86       -73.1295   29.2740  -74.9536 H         1 UNK         0.2984 
     87 H87       -70.9266   28.7942  -76.3827 H         1 UNK         0.0554 
     88 H88       -68.8939   27.4783  -75.7209 H         1 UNK         0.0847 
     89 H89       -68.9113   28.2550  -74.1375 H         1 UNK         0.0847 
     90 H90       -68.6418   29.2110  -75.5842 H         1 UNK         0.0847 
     91 H91       -72.1582   27.1100  -75.6804 H         1 UNK         0.3141 
     92 H92       -72.1646   24.8809  -73.0417 H         1 UNK         0.0743 
     93 H93       -73.6074   26.5820  -71.9263 H         1 UNK         0.0784 
     94 H94       -74.3486   26.9997  -73.4634 H         1 UNK         0.0784 
     95 H95       -74.5988   25.3999  -72.7665 H         1 UNK         0.0784 
     96 H96       -73.9850   25.2745  -75.2153 H         1 UNK         0.3213 
     97 H97       -72.0104   23.6680  -77.7316 H         1 UNK         0.0855 
     98 H98       -74.1454   22.4074  -77.9170 H         1 UNK         0.0814 
     99 H99       -74.6236   22.9325  -76.3032 H         1 UNK         0.0814 
    100 H100      -73.2342   21.8788  -76.5123 H         1 UNK         0.0814 
    101 H101      -74.5725   25.0514  -77.6127 H         1 UNK         0.3105 
    102 H102      -73.3523   28.1431  -78.8425 H         1 UNK         0.0547 
    103 H103      -74.8851   25.9671  -80.3667 H         1 UNK         0.0837 
    104 H104      -74.8910   27.6928  -80.7332 H         1 UNK         0.0837 
    105 H105      -73.4166   26.7597  -80.9183 H         1 UNK         0.0837 
    106 H106      -75.9965   27.0919  -78.4453 H         1 UNK         0.3020 
    107 H107      -76.2707   28.0712  -75.0366 H         1 UNK         0.1245 
    108 H108      -78.3889   29.0836  -76.2404 H         1 UNK         0.0781 
    109 H109      -77.3573   29.3309  -77.6098 H         1 UNK         0.0781 
    110 H110      -77.8389   32.0107  -73.9974 H         1 UNK         0.0836 
    111 H111      -78.9241   30.8090  -74.6470 H         1 UNK         0.0836 
    112 H112      -78.2161   26.8519  -76.6187 H         1 UNK         0.3022 
    113 H113      -77.6380   23.8879  -77.0579 H         1 UNK         0.0747 
    114 H114      -76.7192   22.8640  -75.0045 H         1 UNK         0.0793 
    115 H115      -78.4206   22.4663  -75.1543 H         1 UNK         0.0793 
    116 H116      -77.9012   23.7010  -74.0108 H         1 UNK         0.0793 
    117 H117      -79.7278   24.8774  -75.2211 H         1 UNK         0.3047 
    118 H118      -81.4398   26.5956  -76.7793 H         1 UNK         0.0822 
    119 H119      -81.9250   25.9192  -79.1012 H         1 UNK         0.0807 
    120 H120      -83.3424   25.6452  -78.1044 H         1 UNK         0.0807 
    121 H121      -82.3266   24.2875  -78.5879 H         1 UNK         0.0807 
    122 H122      -82.4637   25.5142  -75.1368 H         1 UNK         0.2946 
    123 H123      -84.0240   23.4537  -74.4199 H         1 UNK         0.1144 
    124 H124      -83.4474   21.4138  -73.1059 H         1 UNK         0.0793 
    125 H125      -81.8774   21.3274  -73.9038 H         1 UNK         0.0793 
    126 H126      -83.3564   21.0967  -74.8294 H         1 UNK         0.0793 
    127 H127      -81.6601   23.4480  -72.6417 H         1 UNK         0.2896 
@<TRIPOS>BOND
     1    1    2 1    
     2    1   67 1    
     3    1   68 1    
     4    1   69 1    
     5    2    3 2    
     6    2    4 am   BACKBONE|DICT|INTERRES
     7    4    5 1    
     8    4   70 1    
     9    5    6 1    
    10    5   65 1    
    11    5   71 1    
    12    6    7 1    
    13    6   72 1    
    14    6   73 1    
    15    7    8 1    
    16    8    9 1    
    17    8   74 1    
    18    8   75 1    
    19    9   10 ar   
    20    9   14 ar   
    21   10   11 ar   
    22   10   76 1    
    23   11   12 ar   
    24   11   48 1    
    25   12   13 ar   
    26   12   77 1    
    27   13   14 ar   
    28   13   15 1    
    29   14   78 1    
    30   15   16 1    
    31   15   79 1    
    32   15   80 1    
    33   16   17 1    
    34   17   18 1    
    35   17   81 1    
    36   17   82 1    
    37   18   19 1    
    38   18   22 1    
    39   18   83 1    
    40   19   20 am   BACKBONE|DICT|INTERRES
    41   19   21 2    
    42   20   84 1    
    43   20   85 1    
    44   22   23 am   BACKBONE|DICT|INTERRES
    45   22   86 1    
    46   23   24 2    
    47   23   25 1    
    48   25   26 1    
    49   25   27 1    
    50   25   87 1    
    51   26   88 1    
    52   26   89 1    
    53   26   90 1    
    54   27   28 am   BACKBONE|DICT|INTERRES
    55   27   91 1    
    56   28   29 2    
    57   28   30 1    
    58   30   31 1    
    59   30   32 1    
    60   30   92 1    
    61   31   93 1    
    62   31   94 1    
    63   31   95 1    
    64   32   33 am   BACKBONE|DICT|INTERRES
    65   32   96 1    
    66   33   34 2    
    67   33   35 1    
    68   35   36 1    
    69   35   37 1    
    70   35   97 1    
    71   36   98 1    
    72   36   99 1    
    73   36  100 1    
    74   37   38 am   BACKBONE|DICT|INTERRES
    75   37  101 1    
    76   38   39 2    
    77   38   40 1    
    78   40   41 1    
    79   40   42 1    
    80   40  102 1    
    81   41  103 1    
    82   41  104 1    
    83   41  105 1    
    84   42   43 am   BACKBONE|DICT|INTERRES
    85   42  106 1    
    86   43   44 2    
    87   43   45 1    
    88   45   46 1    
    89   45   49 1    
    90   45  107 1    
    91   46   47 1    
    92   46  108 1    
    93   46  109 1    
    94   47   48 1    
    95   48  110 1    
    96   48  111 1    
    97   49   50 am   BACKBONE|DICT|INTERRES
    98   49  112 1    
    99   50   51 2    
   100   50   52 1    
   101   52   53 1    
   102   52   54 1    
   103   52  113 1    
   104   53  114 1    
   105   53  115 1    
   106   53  116 1    
   107   54   55 am   BACKBONE|DICT|INTERRES
   108   54  117 1    
   109   55   56 2    
   110   55   57 1    
   111   57   58 1    
   112   57   59 1    
   113   57  118 1    
   114   58  119 1    
   115   58  120 1    
   116   58  121 1    
   117   59   60 am   BACKBONE|DICT|INTERRES
   118   59  122 1    
   119   60   61 2    
   120   60   62 1    
   121   62   63 1    
   122   62   64 1    
   123   62  123 1    
   124   63  124 1    
   125   63  125 1    
   126   63  126 1    
   127   64   65 am   BACKBONE|DICT|INTERRES
   128   64  127 1    
   129   65   66 2    
@<TRIPOS>SUBSTRUCTURE
     1 UNK         1 GROUP             0       ****    0 ROOT    
