@<TRIPOS>MOLECULE
3R135
127   129    1
SMALL
USER_CHARGES


@<TRIPOS>ATOM
      1 CA        -83.6041   27.4791  -73.2897 C.3       0 UNK        -0.1998 
      2 C         -82.2266   27.2498  -72.6740 C.2       0 UNK         0.4909 
      3 O         -82.1330   26.6322  -71.6160 O.2       0 UNK        -0.5240 
      4 N         -81.1297   27.7246  -73.2812 N.am      1 UNK        -0.4739 
      5 CA        -81.0576   28.4664  -74.5495 C.3       1 UNK         0.0864 
      6 C6        -79.7439   29.2845  -74.6590 C.3       11 UNK        -0.0881 
      7 S7        -79.7071   30.6384  -73.4326 S.3       11 UNK        -0.2682 
      8 C8        -77.9278   30.7795  -73.0325 C.3       11 UNK         0.0289 
      9 C9        -77.3358   29.6475  -72.1893 C.ar      11 UNK        -0.0687 
     10 C10       -78.1273   28.7618  -71.4492 C.ar      11 UNK        -0.0823 
     11 C11       -77.5455   27.6881  -70.7692 C.ar      11 UNK        -0.0830 
     12 C12       -76.1559   27.5687  -70.7230 C.ar      11 UNK        -0.1021 
     13 C13       -75.3474   28.4641  -71.4251 C.ar      11 UNK        -0.0753 
     14 C14       -75.9472   29.4843  -72.1724 C.ar      11 UNK        -0.0933 
     15 C15       -73.8412   28.2482  -71.4569 C.3       11 UNK         0.0166 
     16 S16       -72.8999   29.3578  -70.3581 S.3       11 UNK        -0.2615 
     17 C17       -73.0570   31.0258  -71.1011 C.3       11 UNK        -0.0865 
     18 CA        -72.2577   31.2787  -72.4114 C.3       10 UNK         0.0862 
     19 C         -70.7169   31.1415  -72.2247 C.2       10 UNK         0.5551 
     20 N         -70.0211   30.2926  -72.9729 N.am      10 UNK        -0.7319 
     21 O         -70.1385   31.8368  -71.3929 O.2       10 UNK        -0.5018 
     22 N         -72.8126   30.5206  -73.5408 N.am      10 UNK        -0.4509 
     23 C         -72.7456   30.8742  -74.8278 C.2       10 UNK         0.4899 
     24 O         -72.2740   31.9445  -75.2152 O.2       10 UNK        -0.4839 
     25 CA        -73.3086   29.8619  -75.8502 C.3       9 UNK         0.0222 
     26 CB        -72.7170   30.0789  -77.2593 C.3       9 UNK        -0.1966 
     27 N         -73.1781   28.4457  -75.4665 N.am      9 UNK        -0.4218 
     28 C         -72.0444   27.7916  -75.1620 C.2       9 UNK         0.5020 
     29 O         -70.9575   28.3439  -74.9861 O.2       9 UNK        -0.5274 
     30 CA        -72.1263   26.2583  -75.0479 C.3       8 UNK         0.0270 
     31 CB        -72.5199   25.8226  -73.6290 C.3       8 UNK        -0.1976 
     32 N         -73.0442   25.6553  -76.0174 N.am      8 UNK        -0.4313 
     33 C         -72.8450   25.6352  -77.3437 C.2       8 UNK         0.5041 
     34 O         -71.8313   26.0690  -77.8928 O.2       8 UNK        -0.5577 
     35 CA        -73.9694   25.0408  -78.2094 C.3       7 UNK         0.0284 
     36 CB        -73.8589   23.5093  -78.2687 C.3       7 UNK        -0.1958 
     37 N         -75.3061   25.4251  -77.7492 N.am      7 UNK        -0.4454 
     38 C         -75.7849   26.6772  -77.7714 C.2       7 UNK         0.5089 
     39 O         -75.1723   27.6398  -78.2308 O.2       7 UNK        -0.5125 
     40 CA        -77.1788   26.9016  -77.1636 C.3       6 UNK         0.0408 
     41 CB        -78.2673   26.6228  -78.2098 C.3       6 UNK        -0.1791 
     42 N         -77.4100   26.1043  -75.9539 N.am      6 UNK        -0.4762 
     43 C         -76.7517   26.2915  -74.7995 C.2       6 UNK         0.5007 
     44 O         -75.9098   27.1762  -74.6354 O.2       6 UNK        -0.5032 
     45 CA        -77.0315   25.2817  -73.6652 C.3       5 UNK         0.0783 
     46 C46       -78.3417   25.6046  -72.8991 C.3       11 UNK        -0.0857 
     47 S47       -78.2770   25.0379  -71.1600 S.3       11 UNK        -0.2512 
     48 C48       -78.4227   26.5874  -70.1939 C.3       11 UNK         0.0225 
     49 N         -77.0348   23.9072  -74.1747 N.am      5 UNK        -0.4615 
     50 C         -75.9614   23.2793  -74.6727 C.2       4 UNK         0.5053 
     51 O         -74.8394   23.7812  -74.7205 O.2       4 UNK        -0.5105 
     52 CA        -76.1773   21.8711  -75.2543 C.3       4 UNK         0.0263 
     53 CB        -76.0250   20.8091  -74.1543 C.3       4 UNK        -0.1981 
     54 N         -77.4693   21.6983  -75.9254 N.am      4 UNK        -0.4224 
     55 C         -77.8915   22.4028  -76.9854 C.2       3 UNK         0.4895 
     56 O         -77.2241   23.2873  -77.5237 O.2       3 UNK        -0.5091 
     57 CA        -79.3051   22.1030  -77.5273 C.3       3 UNK         0.0250 
     58 CB        -80.0158   20.9215  -76.8266 C.3       3 UNK        -0.1996 
     59 N         -80.1676   23.2931  -77.5089 N.am      3 UNK        -0.4254 
     60 C         -80.4369   24.0627  -76.4447 C.2       2 UNK         0.5004 
     61 O         -79.9673   23.8723  -75.3209 O.2       2 UNK        -0.5226 
     62 CA        -81.3961   25.2373  -76.6665 C.3       2 UNK         0.0269 
     63 CB        -82.8595   24.7655  -76.6085 C.3       2 UNK        -0.1926 
     64 N         -81.1732   26.2412  -75.6259 N.am      2 UNK        -0.4687 
     65 C         -81.2669   27.5672  -75.7893 C.2       1 UNK         0.5165 
     66 O         -81.5389   28.0950  -76.8677 O.2       1 UNK        -0.5079 
     67 H67       -83.6951   26.9745  -74.2507 H         1 UNK         0.0900 
     68 H68       -84.3816   27.0832  -72.6366 H         1 UNK         0.0900 
     69 H69       -83.8019   28.5416  -73.4257 H         1 UNK         0.0900 
     70 H70       -80.2434   27.5740  -72.8266 H         1 UNK         0.2959 
     71 H71       -81.8801   29.1839  -74.5705 H         1 UNK         0.1079 
     72 H72       -78.8712   28.6409  -74.5346 H         1 UNK         0.0837 
     73 H73       -79.6473   29.7405  -75.6466 H         1 UNK         0.0837 
     74 H74       -77.7750   31.7161  -72.4949 H         1 UNK         0.0685 
     75 H75       -77.3742   30.8679  -73.9689 H         1 UNK         0.0685 
     76 H76       -79.2026   28.8609  -71.4517 H         1 UNK         0.1434 
     77 H77       -75.7099   26.7361  -70.1960 H         1 UNK         0.1329 
     78 H78       -75.3381   30.1498  -72.7640 H         1 UNK         0.1335 
     79 H79       -73.4781   28.3091  -72.4778 H         1 UNK         0.0680 
     80 H80       -73.6172   27.2275  -71.1432 H         1 UNK         0.0680 
     81 H81       -72.7236   31.7375  -70.3435 H         1 UNK         0.1032 
     82 H82       -74.1092   31.2663  -71.2429 H         1 UNK         0.1032 
     83 H83       -72.4091   32.3340  -72.6473 H         1 UNK         0.0461 
     84 H84       -69.0250   30.2259  -72.8399 H         1 UNK         0.3453 
     85 H85       -70.4731   29.7115  -73.6723 H         1 UNK         0.3453 
     86 H86       -73.1774   29.6081  -73.3208 H         1 UNK         0.2984 
     87 H87       -74.3805   30.0561  -75.9086 H         1 UNK         0.0554 
     88 H88       -72.9363   31.0806  -77.6307 H         1 UNK         0.0847 
     89 H89       -73.1311   29.3726  -77.9784 H         1 UNK         0.0847 
     90 H90       -71.6330   29.9588  -77.2623 H         1 UNK         0.0847 
     91 H91       -74.0348   27.9033  -75.5103 H         1 UNK         0.3141 
     92 H92       -71.1268   25.8680  -75.2511 H         1 UNK         0.0743 
     93 H93       -71.8848   26.2972  -72.8797 H         1 UNK         0.0784 
     94 H94       -73.5562   26.0758  -73.4039 H         1 UNK         0.0784 
     95 H95       -72.4124   24.7446  -73.5066 H         1 UNK         0.0784 
     96 H96       -73.8667   25.1912  -75.6400 H         1 UNK         0.3213 
     97 H97       -73.8466   25.4286  -79.2230 H         1 UNK         0.0855 
     98 H98       -73.9382   23.0611  -77.2788 H         1 UNK         0.0814 
     99 H99       -72.8981   23.2056  -78.6862 H         1 UNK         0.0814 
    100 H100      -74.6380   23.0772  -78.8972 H         1 UNK         0.0814 
    101 H101      -75.9212   24.6782  -77.4352 H         1 UNK         0.3105 
    102 H102      -77.2468   27.9557  -76.8854 H         1 UNK         0.0547 
    103 H103      -79.2409   26.9587  -77.8620 H         1 UNK         0.0837 
    104 H104      -78.3354   25.5639  -78.4591 H         1 UNK         0.0837 
    105 H105      -78.0634   27.1608  -79.1368 H         1 UNK         0.0837 
    106 H106      -78.0304   25.3098  -76.0306 H         1 UNK         0.3020 
    107 H107      -76.1923   25.3789  -72.9719 H         1 UNK         0.1245 
    108 H108      -79.2030   25.1322  -73.3646 H         1 UNK         0.0781 
    109 H109      -78.5627   26.6670  -72.9368 H         1 UNK         0.0781 
    110 H110      -78.1397   26.3946  -69.1582 H         1 UNK         0.0836 
    111 H111      -79.4701   26.8937  -70.1751 H         1 UNK         0.0836 
    112 H112      -77.9353   23.4477  -74.2193 H         1 UNK         0.3022 
    113 H113      -75.3984   21.7003  -75.9992 H         1 UNK         0.0747 
    114 H114      -76.0792   19.8006  -74.5649 H         1 UNK         0.0793 
    115 H115      -75.0594   20.9016  -73.6548 H         1 UNK         0.0793 
    116 H116      -76.7975   20.9041  -73.3900 H         1 UNK         0.0793 
    117 H117      -78.0940   21.0072  -75.5362 H         1 UNK         0.3047 
    118 H118      -79.1705   21.8325  -78.5757 H         1 UNK         0.0822 
    119 H119      -80.9795   20.7175  -77.2936 H         1 UNK         0.0807 
    120 H120      -80.2029   21.1185  -75.7701 H         1 UNK         0.0807 
    121 H121      -79.4310   20.0036  -76.9009 H         1 UNK         0.0807 
    122 H122      -80.5805   23.5394  -78.3979 H         1 UNK         0.2946 
    123 H123      -81.1961   25.6645  -77.6514 H         1 UNK         0.1144 
    124 H124      -83.1022   24.3263  -75.6399 H         1 UNK         0.0793 
    125 H125      -83.0617   24.0109  -77.3697 H         1 UNK         0.0793 
    126 H126      -83.5489   25.5918  -76.7828 H         1 UNK         0.0793 
    127 H127      -80.9029   25.8654  -74.7264 H         1 UNK         0.2896 
@<TRIPOS>BOND
     1    1    2 1    
     2    1   67 1    
     3    1   68 1    
     4    1   69 1    
     5    2    3 2    
     6    2    4 am   BACKBONE|DICT|INTERRES
     7    4    5 1    
     8    4   70 1    
     9    5    6 1    
    10    5   65 1    
    11    5   71 1    
    12    6    7 1    
    13    6   72 1    
    14    6   73 1    
    15    7    8 1    
    16    8    9 1    
    17    8   74 1    
    18    8   75 1    
    19    9   10 ar   
    20    9   14 ar   
    21   10   11 ar   
    22   10   76 1    
    23   11   12 ar   
    24   11   48 1    
    25   12   13 ar   
    26   12   77 1    
    27   13   14 ar   
    28   13   15 1    
    29   14   78 1    
    30   15   16 1    
    31   15   79 1    
    32   15   80 1    
    33   16   17 1    
    34   17   18 1    
    35   17   81 1    
    36   17   82 1    
    37   18   19 1    
    38   18   22 1    
    39   18   83 1    
    40   19   20 am   BACKBONE|DICT|INTERRES
    41   19   21 2    
    42   20   84 1    
    43   20   85 1    
    44   22   23 am   BACKBONE|DICT|INTERRES
    45   22   86 1    
    46   23   24 2    
    47   23   25 1    
    48   25   26 1    
    49   25   27 1    
    50   25   87 1    
    51   26   88 1    
    52   26   89 1    
    53   26   90 1    
    54   27   28 am   BACKBONE|DICT|INTERRES
    55   27   91 1    
    56   28   29 2    
    57   28   30 1    
    58   30   31 1    
    59   30   32 1    
    60   30   92 1    
    61   31   93 1    
    62   31   94 1    
    63   31   95 1    
    64   32   33 am   BACKBONE|DICT|INTERRES
    65   32   96 1    
    66   33   34 2    
    67   33   35 1    
    68   35   36 1    
    69   35   37 1    
    70   35   97 1    
    71   36   98 1    
    72   36   99 1    
    73   36  100 1    
    74   37   38 am   BACKBONE|DICT|INTERRES
    75   37  101 1    
    76   38   39 2    
    77   38   40 1    
    78   40   41 1    
    79   40   42 1    
    80   40  102 1    
    81   41  103 1    
    82   41  104 1    
    83   41  105 1    
    84   42   43 am   BACKBONE|DICT|INTERRES
    85   42  106 1    
    86   43   44 2    
    87   43   45 1    
    88   45   46 1    
    89   45   49 1    
    90   45  107 1    
    91   46   47 1    
    92   46  108 1    
    93   46  109 1    
    94   47   48 1    
    95   48  110 1    
    96   48  111 1    
    97   49   50 am   BACKBONE|DICT|INTERRES
    98   49  112 1    
    99   50   51 2    
   100   50   52 1    
   101   52   53 1    
   102   52   54 1    
   103   52  113 1    
   104   53  114 1    
   105   53  115 1    
   106   53  116 1    
   107   54   55 am   BACKBONE|DICT|INTERRES
   108   54  117 1    
   109   55   56 2    
   110   55   57 1    
   111   57   58 1    
   112   57   59 1    
   113   57  118 1    
   114   58  119 1    
   115   58  120 1    
   116   58  121 1    
   117   59   60 am   BACKBONE|DICT|INTERRES
   118   59  122 1    
   119   60   61 2    
   120   60   62 1    
   121   62   63 1    
   122   62   64 1    
   123   62  123 1    
   124   63  124 1    
   125   63  125 1    
   126   63  126 1    
   127   64   65 am   BACKBONE|DICT|INTERRES
   128   64  127 1    
   129   65   66 2    
@<TRIPOS>SUBSTRUCTURE
     1 UNK         1 GROUP             0       ****    0 ROOT    
