@<TRIPOS>MOLECULE
3R135
127   129    1
SMALL
USER_CHARGES


@<TRIPOS>ATOM
      1 CA        -82.3209   26.7378  -73.9308 C.3       0 UNK        -0.1998 
      2 C         -81.3810   27.0556  -75.0838 C.2       0 UNK         0.4909 
      3 O         -81.6740   26.7132  -76.2305 O.2       0 UNK        -0.5240 
      4 N         -80.2551   27.7194  -74.7939 N.am      1 UNK        -0.4739 
      5 CA        -79.2255   28.0959  -75.7677 C.3       1 UNK         0.0864 
      6 C6        -78.1828   29.0848  -75.1799 C.3       11 UNK        -0.0881 
      7 S7        -78.9646   30.5585  -74.4301 S.3       11 UNK        -0.2682 
      8 C8        -77.7966   31.0286  -73.1011 C.3       11 UNK         0.0289 
      9 C9        -77.4729   29.9328  -72.0840 C.ar      11 UNK        -0.0687 
     10 C10       -78.4054   28.9521  -71.7245 C.ar      11 UNK        -0.0823 
     11 C11       -78.0642   27.9334  -70.8292 C.ar      11 UNK        -0.0830 
     12 C12       -76.7916   27.9297  -70.2480 C.ar      11 UNK        -0.1021 
     13 C13       -75.8544   28.9086  -70.5856 C.ar      11 UNK        -0.0753 
     14 C14       -76.2052   29.9101  -71.4942 C.ar      11 UNK        -0.0933 
     15 C15       -74.4523   28.8633  -69.9989 C.3       11 UNK         0.0166 
     16 S16       -73.3336   27.9548  -71.1116 S.3       11 UNK        -0.2615 
     17 C17       -71.9471   29.1287  -71.3219 C.3       11 UNK        -0.0865 
     18 CA        -72.2860   30.3978  -72.1548 C.3       10 UNK         0.0862 
     19 C         -71.0192   31.2767  -72.3807 C.2       10 UNK         0.5551 
     20 N         -70.6294   31.5908  -73.6113 N.am      10 UNK        -0.7319 
     21 O         -70.3788   31.6844  -71.4149 O.2       10 UNK        -0.5018 
     22 N         -73.0333   30.0739  -73.3784 N.am      10 UNK        -0.4509 
     23 C         -73.8067   30.9295  -74.0564 C.2       10 UNK         0.4899 
     24 O         -73.9999   32.0986  -73.7199 O.2       10 UNK        -0.4839 
     25 CA        -74.4850   30.3611  -75.3135 C.3       9 UNK         0.0222 
     26 CB        -75.0897   31.4488  -76.2266 C.3       9 UNK        -0.1966 
     27 N         -73.6072   29.4658  -76.0745 N.am      9 UNK        -0.4218 
     28 C         -72.4360   29.7721  -76.6597 C.2       9 UNK         0.5020 
     29 O         -71.9020   30.8793  -76.5780 O.2       9 UNK        -0.5274 
     30 CA        -71.7113   28.6601  -77.4499 C.3       8 UNK         0.0270 
     31 CB        -70.4233   28.2403  -76.7206 C.3       8 UNK        -0.1976 
     32 N         -72.5309   27.4676  -77.6801 N.am      8 UNK        -0.4313 
     33 C         -73.6209   27.4056  -78.4576 C.2       8 UNK         0.5041 
     34 O         -73.9627   28.3059  -79.2245 O.2       8 UNK        -0.5577 
     35 CA        -74.5126   26.1551  -78.3190 C.3       7 UNK         0.0284 
     36 CB        -74.4333   25.2813  -79.5813 C.3       7 UNK        -0.1958 
     37 N         -74.2346   25.3249  -77.1365 N.am      7 UNK        -0.4454 
     38 C         -74.3747   25.7135  -75.8608 C.2       7 UNK         0.5089 
     39 O         -74.7121   26.8502  -75.5234 O.2       7 UNK        -0.5125 
     40 CA        -73.9688   24.6921  -74.7860 C.3       6 UNK         0.0408 
     41 CB        -72.6760   25.1412  -74.0844 C.3       6 UNK        -0.1791 
     42 N         -75.0214   24.5124  -73.7869 N.am      6 UNK        -0.4762 
     43 C         -76.1773   23.8718  -74.0121 C.2       6 UNK         0.5007 
     44 O         -76.4425   23.3217  -75.0854 O.2       6 UNK        -0.5032 
     45 CA        -77.1669   23.8100  -72.8244 C.3       5 UNK         0.0783 
     46 C46       -77.6187   25.2160  -72.3536 C.3       11 UNK        -0.0857 
     47 S47       -78.3774   25.1481  -70.6950 S.3       11 UNK        -0.2512 
     48 C48       -79.0691   26.8290  -70.5154 C.3       11 UNK         0.0225 
     49 N         -78.3266   22.9799  -73.1494 N.am      5 UNK        -0.4615 
     50 C         -78.3657   21.6462  -73.1632 C.2       4 UNK         0.5053 
     51 O         -77.4333   20.9317  -72.7928 O.2       4 UNK        -0.5105 
     52 CA        -79.6619   20.9894  -73.6788 C.3       4 UNK         0.0263 
     53 CB        -80.7475   20.9736  -72.5842 C.3       4 UNK        -0.1981 
     54 N         -80.1773   21.5433  -74.9437 N.am      4 UNK        -0.4224 
     55 C         -80.6625   22.7691  -75.1903 C.2       3 UNK         0.4895 
     56 O         -80.7538   23.6628  -74.3461 O.2       3 UNK        -0.5091 
     57 CA        -81.1157   23.0529  -76.6284 C.3       3 UNK         0.0250 
     58 CB        -82.6074   23.4238  -76.6772 C.3       3 UNK        -0.1996 
     59 N         -80.3149   24.1473  -77.1767 N.am      3 UNK        -0.4254 
     60 C         -79.1141   23.9740  -77.7495 C.2       2 UNK         0.5004 
     61 O         -78.6252   22.8642  -77.9666 O.2       2 UNK        -0.5226 
     62 CA        -78.3194   25.2240  -78.1747 C.3       2 UNK         0.0269 
     63 CB        -78.3142   25.3778  -79.7046 C.3       2 UNK        -0.1926 
     64 N         -78.8010   26.4695  -77.5692 N.am      2 UNK        -0.4687 
     65 C         -78.5449   26.8223  -76.3031 C.2       1 UNK         0.5165 
     66 O         -77.8376   26.1625  -75.5470 O.2       1 UNK        -0.5079 
     67 H67       -81.9137   27.0592  -72.9718 H         1 UNK         0.0900 
     68 H68       -82.5010   25.6640  -73.8779 H         1 UNK         0.0900 
     69 H69       -83.2785   27.2370  -74.0799 H         1 UNK         0.0900 
     70 H70       -80.0555   27.9725  -73.8395 H         1 UNK         0.2959 
     71 H71       -79.7265   28.5986  -76.5980 H         1 UNK         0.1079 
     72 H72       -77.5578   28.5845  -74.4379 H         1 UNK         0.0837 
     73 H73       -77.5051   29.4228  -75.9656 H         1 UNK         0.0837 
     74 H74       -76.8789   31.3824  -73.5713 H         1 UNK         0.0685 
     75 H75       -78.2123   31.8821  -72.5645 H         1 UNK         0.0685 
     76 H76       -79.3947   28.9718  -72.1569 H         1 UNK         0.1434 
     77 H77       -76.5194   27.1436  -69.5569 H         1 UNK         0.1329 
     78 H78       -75.4793   30.6676  -71.7521 H         1 UNK         0.1335 
     79 H79       -74.0897   29.8764  -69.8223 H         1 UNK         0.0680 
     80 H80       -74.4623   28.3708  -69.0255 H         1 UNK         0.0680 
     81 H81       -71.1306   28.5803  -71.7954 H         1 UNK         0.1032 
     82 H82       -71.5801   29.4104  -70.3329 H         1 UNK         0.1032 
     83 H83       -72.9471   31.0118  -71.5414 H         1 UNK         0.0461 
     84 H84       -71.1615   31.2897  -74.4161 H         1 UNK         0.3453 
     85 H85       -69.8094   32.1627  -73.7368 H         1 UNK         0.3453 
     86 H86       -72.9478   29.1260  -73.7134 H         1 UNK         0.2984 
     87 H87       -75.3036   29.7386  -74.9517 H         1 UNK         0.0554 
     88 H88       -75.8428   32.0334  -75.6975 H         1 UNK         0.0847 
     89 H89       -74.3305   32.1456  -76.5830 H         1 UNK         0.0847 
     90 H90       -75.5762   31.0091  -77.0971 H         1 UNK         0.0847 
     91 H91       -73.9347   28.5039  -76.1268 H         1 UNK         0.3141 
     92 H92       -71.4399   29.0775  -78.4216 H         1 UNK         0.0743 
     93 H93       -69.7638   29.0960  -76.5676 H         1 UNK         0.0784 
     94 H94       -70.6342   27.8138  -75.7390 H         1 UNK         0.0784 
     95 H95       -69.8626   27.5031  -77.2956 H         1 UNK         0.0784 
     96 H96       -72.3241   26.6627  -77.1080 H         1 UNK         0.3213 
     97 H97       -75.5347   26.5257  -78.2230 H         1 UNK         0.0855 
     98 H98       -74.6757   25.8606  -80.4735 H         1 UNK         0.0814 
     99 H99       -75.1400   24.4522  -79.5368 H         1 UNK         0.0814 
    100 H100      -73.4345   24.8670  -79.7235 H         1 UNK         0.0814 
    101 H101      -73.9352   24.3767  -77.3166 H         1 UNK         0.3105 
    102 H102      -73.7793   23.7267  -75.2604 H         1 UNK         0.0547 
    103 H103      -71.8591   25.2498  -74.7987 H         1 UNK         0.0837 
    104 H104      -72.8000   26.1022  -73.5836 H         1 UNK         0.0837 
    105 H105      -72.3553   24.4144  -73.3380 H         1 UNK         0.0837 
    106 H106      -74.8787   24.9734  -72.8998 H         1 UNK         0.3020 
    107 H107      -76.6256   23.3286  -72.0067 H         1 UNK         0.1245 
    108 H108      -76.7782   25.9101  -72.3059 H         1 UNK         0.0781 
    109 H109      -78.3337   25.6505  -73.0538 H         1 UNK         0.0781 
    110 H110      -79.4276   26.9563  -69.4933 H         1 UNK         0.0836 
    111 H111      -79.9451   26.9076  -71.1608 H         1 UNK         0.0836 
    112 H112      -79.1457   23.4685  -73.5027 H         1 UNK         0.3022 
    113 H113      -79.4123   19.9501  -73.8994 H         1 UNK         0.0747 
    114 H114      -81.0479   21.9798  -72.2902 H         1 UNK         0.0793 
    115 H115      -81.6386   20.4415  -72.9171 H         1 UNK         0.0793 
    116 H116      -80.3856   20.4707  -71.6865 H         1 UNK         0.0793 
    117 H117      -80.1072   20.9127  -75.7309 H         1 UNK         0.3047 
    118 H118      -80.9777   22.1576  -77.2388 H         1 UNK         0.0822 
    119 H119      -82.9288   23.6413  -77.6958 H         1 UNK         0.0807 
    120 H120      -82.8320   24.2959  -76.0631 H         1 UNK         0.0807 
    121 H121      -83.2234   22.6022  -76.3098 H         1 UNK         0.0807 
    122 H122      -80.6430   25.0879  -76.9809 H         1 UNK         0.2946 
    123 H123      -77.2927   25.0505  -77.8448 H         1 UNK         0.1144 
    124 H124      -77.6786   26.2062  -80.0180 H         1 UNK         0.0793 
    125 H125      -79.3168   25.5540  -80.0959 H         1 UNK         0.0793 
    126 H126      -77.9295   24.4778  -80.1865 H         1 UNK         0.0793 
    127 H127      -79.4304   27.0338  -78.1228 H         1 UNK         0.2896 
@<TRIPOS>BOND
     1    1    2 1    
     2    1   67 1    
     3    1   68 1    
     4    1   69 1    
     5    2    3 2    
     6    2    4 am   BACKBONE|DICT|INTERRES
     7    4    5 1    
     8    4   70 1    
     9    5    6 1    
    10    5   65 1    
    11    5   71 1    
    12    6    7 1    
    13    6   72 1    
    14    6   73 1    
    15    7    8 1    
    16    8    9 1    
    17    8   74 1    
    18    8   75 1    
    19    9   10 ar   
    20    9   14 ar   
    21   10   11 ar   
    22   10   76 1    
    23   11   12 ar   
    24   11   48 1    
    25   12   13 ar   
    26   12   77 1    
    27   13   14 ar   
    28   13   15 1    
    29   14   78 1    
    30   15   16 1    
    31   15   79 1    
    32   15   80 1    
    33   16   17 1    
    34   17   18 1    
    35   17   81 1    
    36   17   82 1    
    37   18   19 1    
    38   18   22 1    
    39   18   83 1    
    40   19   20 am   BACKBONE|DICT|INTERRES
    41   19   21 2    
    42   20   84 1    
    43   20   85 1    
    44   22   23 am   BACKBONE|DICT|INTERRES
    45   22   86 1    
    46   23   24 2    
    47   23   25 1    
    48   25   26 1    
    49   25   27 1    
    50   25   87 1    
    51   26   88 1    
    52   26   89 1    
    53   26   90 1    
    54   27   28 am   BACKBONE|DICT|INTERRES
    55   27   91 1    
    56   28   29 2    
    57   28   30 1    
    58   30   31 1    
    59   30   32 1    
    60   30   92 1    
    61   31   93 1    
    62   31   94 1    
    63   31   95 1    
    64   32   33 am   BACKBONE|DICT|INTERRES
    65   32   96 1    
    66   33   34 2    
    67   33   35 1    
    68   35   36 1    
    69   35   37 1    
    70   35   97 1    
    71   36   98 1    
    72   36   99 1    
    73   36  100 1    
    74   37   38 am   BACKBONE|DICT|INTERRES
    75   37  101 1    
    76   38   39 2    
    77   38   40 1    
    78   40   41 1    
    79   40   42 1    
    80   40  102 1    
    81   41  103 1    
    82   41  104 1    
    83   41  105 1    
    84   42   43 am   BACKBONE|DICT|INTERRES
    85   42  106 1    
    86   43   44 2    
    87   43   45 1    
    88   45   46 1    
    89   45   49 1    
    90   45  107 1    
    91   46   47 1    
    92   46  108 1    
    93   46  109 1    
    94   47   48 1    
    95   48  110 1    
    96   48  111 1    
    97   49   50 am   BACKBONE|DICT|INTERRES
    98   49  112 1    
    99   50   51 2    
   100   50   52 1    
   101   52   53 1    
   102   52   54 1    
   103   52  113 1    
   104   53  114 1    
   105   53  115 1    
   106   53  116 1    
   107   54   55 am   BACKBONE|DICT|INTERRES
   108   54  117 1    
   109   55   56 2    
   110   55   57 1    
   111   57   58 1    
   112   57   59 1    
   113   57  118 1    
   114   58  119 1    
   115   58  120 1    
   116   58  121 1    
   117   59   60 am   BACKBONE|DICT|INTERRES
   118   59  122 1    
   119   60   61 2    
   120   60   62 1    
   121   62   63 1    
   122   62   64 1    
   123   62  123 1    
   124   63  124 1    
   125   63  125 1    
   126   63  126 1    
   127   64   65 am   BACKBONE|DICT|INTERRES
   128   64  127 1    
   129   65   66 2    
@<TRIPOS>SUBSTRUCTURE
     1 UNK         1 GROUP             0       ****    0 ROOT    
