@<TRIPOS>MOLECULE
3R135
127   129    1
SMALL
USER_CHARGES


@<TRIPOS>ATOM
      1 CA        -84.1114   24.4526  -73.0324 C.3       0 UNK        -0.1998 
      2 C         -83.4658   25.7743  -73.4196 C.2       0 UNK         0.4909 
      3 O         -83.5285   26.1686  -74.5850 O.2       0 UNK        -0.5240 
      4 N         -82.8481   26.4639  -72.4518 N.am      1 UNK        -0.4739 
      5 CA        -82.0799   27.6955  -72.6627 C.3       1 UNK         0.0864 
      6 C6        -81.7924   28.4453  -71.3333 C.3       11 UNK        -0.0881 
      7 S7        -81.0494   27.4174  -70.0152 S.3       11 UNK        -0.2682 
      8 C8        -79.5970   28.4089  -69.5122 C.3       11 UNK         0.0289 
      9 C9        -78.4208   28.3733  -70.4882 C.ar      11 UNK        -0.0687 
     10 C10       -78.1067   27.2163  -71.2118 C.ar      11 UNK        -0.0823 
     11 C11       -77.0151   27.1948  -72.0827 C.ar      11 UNK        -0.0830 
     12 C12       -76.2045   28.3230  -72.1969 C.ar      11 UNK        -0.1021 
     13 C13       -76.4892   29.4806  -71.4710 C.ar      11 UNK        -0.0753 
     14 C14       -77.6035   29.5027  -70.6249 C.ar      11 UNK        -0.0933 
     15 C15       -75.5599   30.6826  -71.5671 C.3       11 UNK         0.0166 
     16 S16       -76.1142   31.9360  -72.7655 S.3       11 UNK        -0.2615 
     17 C17       -75.9621   31.0919  -74.3822 C.3       11 UNK        -0.0865 
     18 CA        -74.5957   31.2512  -75.1091 C.3       10 UNK         0.0862 
     19 C         -74.2348   32.7177  -75.4855 C.2       10 UNK         0.5551 
     20 N         -72.9742   33.1306  -75.4114 N.am      10 UNK        -0.7319 
     21 O         -75.1047   33.4900  -75.8809 O.2       10 UNK        -0.5018 
     22 N         -73.5027   30.5135  -74.4537 N.am      10 UNK        -0.4509 
     23 C         -73.2793   29.2022  -74.5929 C.2       10 UNK         0.4899 
     24 O         -74.0101   28.4455  -75.2324 O.2       10 UNK        -0.4839 
     25 CA        -72.0401   28.6439  -73.8820 C.3       9 UNK         0.0222 
     26 CB        -72.2349   28.5975  -72.3534 C.3       9 UNK        -0.1966 
     27 N         -71.7390   27.3016  -74.3804 N.am      9 UNK        -0.4218 
     28 C         -70.5346   26.7189  -74.3118 C.2       9 UNK         0.5020 
     29 O         -69.5326   27.2728  -73.8559 O.2       9 UNK        -0.5274 
     30 CA        -70.4131   25.2760  -74.8188 C.3       8 UNK         0.0270 
     31 CB        -70.9186   24.2903  -73.7514 C.3       8 UNK        -0.1976 
     32 N         -71.1506   25.0695  -76.0652 N.am      8 UNK        -0.4313 
     33 C         -70.6018   25.1076  -77.2877 C.2       8 UNK         0.5041 
     34 O         -69.4121   25.3535  -77.4935 O.2       8 UNK        -0.5577 
     35 CA        -71.5077   24.7895  -78.4929 C.3       7 UNK         0.0284 
     36 CB        -71.2735   23.3465  -78.9701 C.3       7 UNK        -0.1958 
     37 N         -72.9325   24.9714  -78.2134 N.am      7 UNK        -0.4454 
     38 C         -73.5476   26.1593  -78.1555 C.2       7 UNK         0.5089 
     39 O         -72.9936   27.2285  -78.4123 O.2       7 UNK        -0.5125 
     40 CA        -75.0298   26.1534  -77.7364 C.3       6 UNK         0.0408 
     41 CB        -75.9322   26.1770  -78.9809 C.3       6 UNK        -0.1791 
     42 N         -75.4395   25.0396  -76.8668 N.am      6 UNK        -0.4762 
     43 C         -74.9001   24.7275  -75.6781 C.2       6 UNK         0.5007 
     44 O         -73.8712   25.2469  -75.2429 O.2       6 UNK        -0.5032 
     45 CA        -75.6270   23.6502  -74.8500 C.3       5 UNK         0.0783 
     46 C46       -75.1538   23.5424  -73.3666 C.3       11 UNK        -0.0857 
     47 S47       -75.4462   24.9228  -72.1883 S.3       11 UNK        -0.2512 
     48 C48       -76.7287   25.9725  -72.9346 C.3       11 UNK         0.0225 
     49 N         -77.0833   23.7282  -75.0107 N.am      5 UNK        -0.4615 
     50 C         -77.9174   22.7030  -74.7907 C.2       4 UNK         0.5053 
     51 O         -77.5323   21.5619  -74.5340 O.2       4 UNK        -0.5105 
     52 CA        -79.4330   22.9746  -74.8358 C.3       4 UNK         0.0263 
     53 CB        -80.0092   23.0219  -73.4106 C.3       4 UNK        -0.1981 
     54 N         -79.7975   24.2042  -75.5431 N.am      4 UNK        -0.4224 
     55 C         -79.7686   24.3385  -76.8779 C.2       3 UNK         0.4895 
     56 O         -79.4246   23.4363  -77.6423 O.2       3 UNK        -0.5091 
     57 CA        -80.1848   25.6954  -77.4787 C.3       3 UNK         0.0250 
     58 CB        -81.6200   25.6181  -78.0244 C.3       3 UNK        -0.1996 
     59 N         -80.0890   26.8303  -76.5577 N.am      3 UNK        -0.4254 
     60 C         -78.9628   27.2616  -75.9737 C.2       2 UNK         0.5004 
     61 O         -77.8648   26.7352  -76.1352 O.2       2 UNK        -0.5226 
     62 CA        -79.0964   28.4427  -74.9989 C.3       2 UNK         0.0269 
     63 CB        -78.9845   29.7708  -75.7624 C.3       2 UNK        -0.1926 
     64 N         -80.3325   28.4462  -74.2062 N.am      2 UNK        -0.4687 
     65 C         -80.7932   27.4247  -73.4686 C.2       1 UNK         0.5165 
     66 O         -80.2533   26.3159  -73.4185 O.2       1 UNK        -0.5079 
     67 H67       -83.7042   23.6450  -73.6402 H         1 UNK         0.0900 
     68 H68       -85.1871   24.4970  -73.2001 H         1 UNK         0.0900 
     69 H69       -83.9398   24.2074  -71.9844 H         1 UNK         0.0900 
     70 H70       -82.7908   26.0814  -71.5184 H         1 UNK         0.2959 
     71 H71       -82.7022   28.3513  -73.2762 H         1 UNK         0.1079 
     72 H72       -81.1670   29.3218  -71.5145 H         1 UNK         0.0837 
     73 H73       -82.7303   28.8406  -70.9401 H         1 UNK         0.0837 
     74 H74       -79.2459   28.0331  -68.5505 H         1 UNK         0.0685 
     75 H75       -79.9197   29.4368  -69.3391 H         1 UNK         0.0685 
     76 H76       -78.7228   26.3330  -71.1163 H         1 UNK         0.1434 
     77 H77       -75.3519   28.2944  -72.8588 H         1 UNK         0.1329 
     78 H78       -77.8206   30.3967  -70.0563 H         1 UNK         0.1335 
     79 H79       -74.5526   30.3627  -71.8262 H         1 UNK         0.0680 
     80 H80       -75.4787   31.1545  -70.5868 H         1 UNK         0.0680 
     81 H81       -76.2110   30.0372  -74.2805 H         1 UNK         0.1032 
     82 H82       -76.7455   31.5015  -75.0205 H         1 UNK         0.1032 
     83 H83       -74.7267   30.7878  -76.0892 H         1 UNK         0.0461 
     84 H84       -72.7598   34.0819  -75.6671 H         1 UNK         0.3453 
     85 H85       -72.2281   32.5022  -75.1639 H         1 UNK         0.3453 
     86 H86       -72.8822   31.0697  -73.8836 H         1 UNK         0.2984 
     87 H87       -71.2022   29.3031  -74.1188 H         1 UNK         0.0554 
     88 H88       -71.3598   28.1843  -71.8519 H         1 UNK         0.0847 
     89 H89       -73.0936   27.9858  -72.0740 H         1 UNK         0.0847 
     90 H90       -72.3860   29.5953  -71.9428 H         1 UNK         0.0847 
     91 H91       -72.5289   26.8049  -74.7862 H         1 UNK         0.3141 
     92 H92       -69.3531   25.0675  -74.9804 H         1 UNK         0.0743 
     93 H93       -71.9606   24.4744  -73.4888 H         1 UNK         0.0784 
     94 H94       -70.8341   23.2580  -74.0910 H         1 UNK         0.0784 
     95 H95       -70.3345   24.3793  -72.8345 H         1 UNK         0.0784 
     96 H96       -72.1554   24.9448  -75.9744 H         1 UNK         0.3213 
     97 H97       -71.2230   25.4654  -79.3026 H         1 UNK         0.0855 
     98 H98       -71.5412   22.6179  -78.2037 H         1 UNK         0.0814 
     99 H99       -70.2240   23.1842  -79.2202 H         1 UNK         0.0814 
    100 H100      -71.8551   23.1242  -79.8650 H         1 UNK         0.0814 
    101 H101      -73.4728   24.1453  -78.0016 H         1 UNK         0.3105 
    102 H102      -75.2081   27.0733  -77.1770 H         1 UNK         0.0547 
    103 H103      -76.9802   26.3008  -78.7091 H         1 UNK         0.0837 
    104 H104      -75.6717   27.0091  -79.6365 H         1 UNK         0.0837 
    105 H105      -75.8405   25.2602  -79.5644 H         1 UNK         0.0837 
    106 H106      -76.2792   24.5529  -77.1461 H         1 UNK         0.3020 
    107 H107      -75.3169   22.7184  -75.3293 H         1 UNK         0.1245 
    108 H108      -74.0832   23.3338  -73.3479 H         1 UNK         0.0781 
    109 H109      -75.6057   22.6568  -72.9183 H         1 UNK         0.0781 
    110 H110      -76.4119   26.3042  -73.9229 H         1 UNK         0.0836 
    111 H111      -77.6460   25.3986  -73.0633 H         1 UNK         0.0836 
    112 H112      -77.4613   24.6375  -75.2518 H         1 UNK         0.3022 
    113 H113      -79.8970   22.1341  -75.3564 H         1 UNK         0.0747 
    114 H114      -81.0858   23.1915  -73.4211 H         1 UNK         0.0793 
    115 H115      -79.8343   22.0806  -72.8879 H         1 UNK         0.0793 
    116 H116      -79.5521   23.8123  -72.8145 H         1 UNK         0.0793 
    117 H117      -80.0642   24.9981  -74.9677 H         1 UNK         0.3047 
    118 H118      -79.5106   25.8952  -78.3140 H         1 UNK         0.0822 
    119 H119      -81.8971   26.5340  -78.5468 H         1 UNK         0.0807 
    120 H120      -82.3452   25.4532  -77.2260 H         1 UNK         0.0807 
    121 H121      -81.7255   24.7977  -78.7358 H         1 UNK         0.0807 
    122 H122      -80.9516   27.3043  -76.3310 H         1 UNK         0.2946 
    123 H123      -78.2628   28.3775  -74.2986 H         1 UNK         0.1144 
    124 H124      -78.9849   30.6212  -75.0805 H         1 UNK         0.0793 
    125 H125      -79.8089   29.9045  -76.4638 H         1 UNK         0.0793 
    126 H126      -78.0587   29.8124  -76.3382 H         1 UNK         0.0793 
    127 H127      -80.8432   29.3175  -74.1923 H         1 UNK         0.2896 
@<TRIPOS>BOND
     1    1    2 1    
     2    1   67 1    
     3    1   68 1    
     4    1   69 1    
     5    2    3 2    
     6    2    4 am   BACKBONE|DICT|INTERRES
     7    4    5 1    
     8    4   70 1    
     9    5    6 1    
    10    5   65 1    
    11    5   71 1    
    12    6    7 1    
    13    6   72 1    
    14    6   73 1    
    15    7    8 1    
    16    8    9 1    
    17    8   74 1    
    18    8   75 1    
    19    9   10 ar   
    20    9   14 ar   
    21   10   11 ar   
    22   10   76 1    
    23   11   12 ar   
    24   11   48 1    
    25   12   13 ar   
    26   12   77 1    
    27   13   14 ar   
    28   13   15 1    
    29   14   78 1    
    30   15   16 1    
    31   15   79 1    
    32   15   80 1    
    33   16   17 1    
    34   17   18 1    
    35   17   81 1    
    36   17   82 1    
    37   18   19 1    
    38   18   22 1    
    39   18   83 1    
    40   19   20 am   BACKBONE|DICT|INTERRES
    41   19   21 2    
    42   20   84 1    
    43   20   85 1    
    44   22   23 am   BACKBONE|DICT|INTERRES
    45   22   86 1    
    46   23   24 2    
    47   23   25 1    
    48   25   26 1    
    49   25   27 1    
    50   25   87 1    
    51   26   88 1    
    52   26   89 1    
    53   26   90 1    
    54   27   28 am   BACKBONE|DICT|INTERRES
    55   27   91 1    
    56   28   29 2    
    57   28   30 1    
    58   30   31 1    
    59   30   32 1    
    60   30   92 1    
    61   31   93 1    
    62   31   94 1    
    63   31   95 1    
    64   32   33 am   BACKBONE|DICT|INTERRES
    65   32   96 1    
    66   33   34 2    
    67   33   35 1    
    68   35   36 1    
    69   35   37 1    
    70   35   97 1    
    71   36   98 1    
    72   36   99 1    
    73   36  100 1    
    74   37   38 am   BACKBONE|DICT|INTERRES
    75   37  101 1    
    76   38   39 2    
    77   38   40 1    
    78   40   41 1    
    79   40   42 1    
    80   40  102 1    
    81   41  103 1    
    82   41  104 1    
    83   41  105 1    
    84   42   43 am   BACKBONE|DICT|INTERRES
    85   42  106 1    
    86   43   44 2    
    87   43   45 1    
    88   45   46 1    
    89   45   49 1    
    90   45  107 1    
    91   46   47 1    
    92   46  108 1    
    93   46  109 1    
    94   47   48 1    
    95   48  110 1    
    96   48  111 1    
    97   49   50 am   BACKBONE|DICT|INTERRES
    98   49  112 1    
    99   50   51 2    
   100   50   52 1    
   101   52   53 1    
   102   52   54 1    
   103   52  113 1    
   104   53  114 1    
   105   53  115 1    
   106   53  116 1    
   107   54   55 am   BACKBONE|DICT|INTERRES
   108   54  117 1    
   109   55   56 2    
   110   55   57 1    
   111   57   58 1    
   112   57   59 1    
   113   57  118 1    
   114   58  119 1    
   115   58  120 1    
   116   58  121 1    
   117   59   60 am   BACKBONE|DICT|INTERRES
   118   59  122 1    
   119   60   61 2    
   120   60   62 1    
   121   62   63 1    
   122   62   64 1    
   123   62  123 1    
   124   63  124 1    
   125   63  125 1    
   126   63  126 1    
   127   64   65 am   BACKBONE|DICT|INTERRES
   128   64  127 1    
   129   65   66 2    
@<TRIPOS>SUBSTRUCTURE
     1 UNK         1 GROUP             0       ****    0 ROOT    
