@<TRIPOS>MOLECULE
3R135
127   129    1
SMALL
USER_CHARGES


@<TRIPOS>ATOM
      1 CA        -84.3202   28.7618  -72.2687 C.3       0 UNK        -0.1998 
      2 C         -83.6559   28.4881  -73.6097 C.2       0 UNK         0.4909 
      3 O         -84.3445   28.1689  -74.5791 O.2       0 UNK        -0.5240 
      4 N         -82.3240   28.6191  -73.6696 N.am      1 UNK        -0.4739 
      5 CA        -81.5009   28.3777  -74.8615 C.3       1 UNK         0.0864 
      6 C6        -80.0480   28.8981  -74.6904 C.3       11 UNK        -0.0881 
      7 S7        -79.9294   30.6909  -74.3395 S.3       11 UNK        -0.2682 
      8 C8        -80.0338   30.8247  -72.5171 C.3       11 UNK         0.0289 
      9 C9        -78.8612   30.1739  -71.7953 C.ar      11 UNK        -0.0687 
     10 C10       -78.9393   28.8359  -71.3977 C.ar      11 UNK        -0.0823 
     11 C11       -77.8503   28.2135  -70.7834 C.ar      11 UNK        -0.0830 
     12 C12       -76.7102   28.9602  -70.4833 C.ar      11 UNK        -0.1021 
     13 C13       -76.6200   30.3006  -70.8679 C.ar      11 UNK        -0.0753 
     14 C14       -77.6982   30.9042  -71.5245 C.ar      11 UNK        -0.0933 
     15 C15       -75.3397   31.0765  -70.5957 C.3       11 UNK         0.0166 
     16 S16       -74.2753   31.2447  -72.0709 S.3       11 UNK        -0.2615 
     17 C17       -74.0854   29.5358  -72.6953 C.3       11 UNK        -0.0865 
     18 CA        -72.7875   28.8170  -72.2326 C.3       10 UNK         0.0862 
     19 C         -72.9478   28.1899  -70.8165 C.2       10 UNK         0.5551 
     20 N         -73.2528   26.9030  -70.7025 N.am      10 UNK        -0.7319 
     21 O         -72.7739   28.8730  -69.8114 O.2       10 UNK        -0.5018 
     22 N         -72.3303   27.8813  -73.2724 N.am      10 UNK        -0.4509 
     23 C         -71.1656   27.2156  -73.2882 C.2       10 UNK         0.4899 
     24 O         -70.3171   27.2814  -72.3992 O.2       10 UNK        -0.4839 
     25 CA        -70.8937   26.3421  -74.5296 C.3       9 UNK         0.0222 
     26 CB        -71.2731   24.8797  -74.2465 C.3       9 UNK        -0.1966 
     27 N         -71.6096   26.8352  -75.7159 N.am      9 UNK        -0.4218 
     28 C         -71.2586   27.9606  -76.3622 C.2       9 UNK         0.5020 
     29 O         -70.2093   28.5665  -76.1355 O.2       9 UNK        -0.5274 
     30 CA        -72.2626   28.5629  -77.3609 C.3       8 UNK         0.0270 
     31 CB        -71.5949   29.4281  -78.4531 C.3       8 UNK        -0.1976 
     32 N         -73.2040   27.5964  -77.9286 N.am      8 UNK        -0.4313 
     33 C         -72.9659   26.6482  -78.8474 C.2       8 UNK         0.5041 
     34 O         -71.8524   26.4167  -79.3203 O.2       8 UNK        -0.5577 
     35 CA        -74.1720   25.8167  -79.3341 C.3       7 UNK         0.0284 
     36 CB        -73.8621   24.3096  -79.3079 C.3       7 UNK        -0.1958 
     37 N         -75.3893   26.0791  -78.5582 N.am      7 UNK        -0.4454 
     38 C         -76.2558   27.0739  -78.7969 C.2       7 UNK         0.5089 
     39 O         -76.1755   27.8295  -79.7651 O.2       7 UNK        -0.5125 
     40 CA        -77.3843   27.2888  -77.7699 C.3       6 UNK         0.0408 
     41 CB        -78.7030   26.7173  -78.3102 C.3       6 UNK        -0.1791 
     42 N         -77.1130   26.7131  -76.4468 N.am      6 UNK        -0.4762 
     43 C         -76.1479   27.1205  -75.6087 C.2       6 UNK         0.5007 
     44 O         -75.3733   28.0462  -75.8539 O.2       6 UNK        -0.5032 
     45 CA        -75.9491   26.2892  -74.3259 C.3       5 UNK         0.0783 
     46 C46       -77.0672   26.5650  -73.2972 C.3       11 UNK        -0.0857 
     47 S47       -76.6864   25.8498  -71.6583 S.3       11 UNK        -0.2512 
     48 C48       -77.8607   26.7104  -70.5509 C.3       11 UNK         0.0225 
     49 N         -75.8064   24.8638  -74.6299 N.am      5 UNK        -0.4615 
     50 C         -74.8599   24.3282  -75.4091 C.2       4 UNK         0.5053 
     51 O         -73.9613   24.9908  -75.9287 O.2       4 UNK        -0.5105 
     52 CA        -74.9554   22.8222  -75.7127 C.3       4 UNK         0.0263 
     53 CB        -74.3582   21.9788  -74.5694 C.3       4 UNK        -0.1981 
     54 N         -76.3133   22.3943  -76.0894 N.am      4 UNK        -0.4224 
     55 C         -77.4040   22.3176  -75.3140 C.2       3 UNK         0.4895 
     56 O         -77.3955   22.4703  -74.0902 O.2       3 UNK        -0.5091 
     57 CA        -78.7385   22.0709  -76.0424 C.3       3 UNK         0.0250 
     58 CB        -79.0460   20.5663  -76.1062 C.3       3 UNK        -0.1996 
     59 N         -79.8596   22.7657  -75.3986 N.am      3 UNK        -0.4254 
     60 C         -79.9287   24.0883  -75.1857 C.2       2 UNK         0.5004 
     61 O         -79.0820   24.8885  -75.5925 O.2       2 UNK        -0.5226 
     62 CA        -81.1241   24.5735  -74.3404 C.3       2 UNK         0.0269 
     63 CB        -81.0408   24.0065  -72.9109 C.3       2 UNK        -0.1926 
     64 N         -81.2129   26.0324  -74.2371 N.am      2 UNK        -0.4687 
     65 C         -81.5020   26.8798  -75.2350 C.2       1 UNK         0.5165 
     66 O         -81.7942   26.5276  -76.3785 O.2       1 UNK        -0.5079 
     67 H67       -85.0407   29.5735  -72.3661 H         1 UNK         0.0900 
     68 H68       -84.8511   27.8743  -71.9255 H         1 UNK         0.0900 
     69 H69       -83.5970   29.0413  -71.5027 H         1 UNK         0.0900 
     70 H70       -81.8244   28.9091  -72.8441 H         1 UNK         0.2959 
     71 H71       -81.9574   28.9186  -75.6938 H         1 UNK         0.1079 
     72 H72       -79.5101   28.3343  -73.9316 H         1 UNK         0.0837 
     73 H73       -79.4914   28.7258  -75.6139 H         1 UNK         0.0837 
     74 H74       -80.9754   30.4081  -72.1614 H         1 UNK         0.0685 
     75 H75       -80.0705   31.8839  -72.2579 H         1 UNK         0.0685 
     76 H76       -79.8276   28.2611  -71.6160 H         1 UNK         0.1434 
     77 H77       -75.8667   28.4767  -70.0093 H         1 UNK         0.1329 
     78 H78       -77.6254   31.9372  -71.8362 H         1 UNK         0.1335 
     79 H79       -74.7717   30.6059  -69.7928 H         1 UNK         0.0680 
     80 H80       -75.5935   32.0741  -70.2344 H         1 UNK         0.0680 
     81 H81       -74.0765   29.6418  -73.7815 H         1 UNK         0.1032 
     82 H82       -74.9691   28.9322  -72.4931 H         1 UNK         0.1032 
     83 H83       -71.9986   29.5673  -72.1510 H         1 UNK         0.0461 
     84 H84       -73.3444   26.4993  -69.7842 H         1 UNK         0.3453 
     85 H85       -73.3862   26.3301  -71.5187 H         1 UNK         0.3453 
     86 H86       -72.9412   27.7645  -74.0652 H         1 UNK         0.2984 
     87 H87       -69.8221   26.3748  -74.7376 H         1 UNK         0.0554 
     88 H88       -70.6256   24.4561  -73.4778 H         1 UNK         0.0847 
     89 H89       -71.1704   24.2584  -75.1364 H         1 UNK         0.0847 
     90 H90       -72.2974   24.7877  -73.8861 H         1 UNK         0.0847 
     91 H91       -72.4640   26.3484  -75.9741 H         1 UNK         0.3141 
     92 H92       -72.8804   29.2362  -76.7647 H         1 UNK         0.0743 
     93 H93       -71.0533   30.2657  -78.0119 H         1 UNK         0.0784 
     94 H94       -70.8779   28.8567  -79.0429 H         1 UNK         0.0784 
     95 H95       -72.3344   29.8476  -79.1353 H         1 UNK         0.0784 
     96 H96       -74.1458   27.6654  -77.5595 H         1 UNK         0.3213 
     97 H97       -74.3515   26.0984  -80.3740 H         1 UNK         0.0855 
     98 H98       -73.5140   23.9851  -78.3286 H         1 UNK         0.0814 
     99 H99       -73.0738   24.0659  -80.0214 H         1 UNK         0.0814 
    100 H100      -74.7344   23.7139  -79.5765 H         1 UNK         0.0814 
    101 H101      -75.5076   25.5402  -77.7123 H         1 UNK         0.3105 
    102 H102      -77.5066   28.3665  -77.6437 H         1 UNK         0.0547 
    103 H103      -78.6658   25.6312  -78.4020 H         1 UNK         0.0837 
    104 H104      -79.5359   26.9681  -77.6561 H         1 UNK         0.0837 
    105 H105      -78.9354   27.1231  -79.2957 H         1 UNK         0.0837 
    106 H106      -77.7306   25.9562  -76.1485 H         1 UNK         0.3020 
    107 H107      -75.0046   26.6149  -73.8873 H         1 UNK         0.1245 
    108 H108      -78.0277   26.1744  -73.6328 H         1 UNK         0.0781 
    109 H109      -77.1907   27.6431  -73.1995 H         1 UNK         0.0781 
    110 H110      -77.5967   26.4987  -69.5139 H         1 UNK         0.0836 
    111 H111      -78.8590   26.2983  -70.7056 H         1 UNK         0.0836 
    112 H112      -76.5079   24.2410  -74.2402 H         1 UNK         0.3022 
    113 H113      -74.3395   22.6398  -76.5937 H         1 UNK         0.0747 
    114 H114      -74.4161   20.9132  -74.7908 H         1 UNK         0.0793 
    115 H115      -73.3055   22.2227  -74.4210 H         1 UNK         0.0793 
    116 H116      -74.8630   22.1525  -73.6188 H         1 UNK         0.0793 
    117 H117      -76.4423   22.2415  -77.0805 H         1 UNK         0.3047 
    118 H118      -78.6581   22.4583  -77.0603 H         1 UNK         0.0822 
    119 H119      -79.9628   20.3702  -76.6627 H         1 UNK         0.0807 
    120 H120      -79.1580   20.1358  -75.1101 H         1 UNK         0.0807 
    121 H121      -78.2434   20.0226  -76.6068 H         1 UNK         0.0807 
    122 H122      -80.5800   22.1773  -75.0071 H         1 UNK         0.2946 
    123 H123      -82.0380   24.2130  -74.8180 H         1 UNK         0.1144 
    124 H124      -81.8801   24.3406  -72.3004 H         1 UNK         0.0793 
    125 H125      -80.1195   24.3117  -72.4118 H         1 UNK         0.0793 
    126 H126      -81.0632   22.9162  -72.9091 H         1 UNK         0.0793 
    127 H127      -81.0071   26.4237  -73.3315 H         1 UNK         0.2896 
@<TRIPOS>BOND
     1    1    2 1    
     2    1   67 1    
     3    1   68 1    
     4    1   69 1    
     5    2    3 2    
     6    2    4 am   BACKBONE|DICT|INTERRES
     7    4    5 1    
     8    4   70 1    
     9    5    6 1    
    10    5   65 1    
    11    5   71 1    
    12    6    7 1    
    13    6   72 1    
    14    6   73 1    
    15    7    8 1    
    16    8    9 1    
    17    8   74 1    
    18    8   75 1    
    19    9   10 ar   
    20    9   14 ar   
    21   10   11 ar   
    22   10   76 1    
    23   11   12 ar   
    24   11   48 1    
    25   12   13 ar   
    26   12   77 1    
    27   13   14 ar   
    28   13   15 1    
    29   14   78 1    
    30   15   16 1    
    31   15   79 1    
    32   15   80 1    
    33   16   17 1    
    34   17   18 1    
    35   17   81 1    
    36   17   82 1    
    37   18   19 1    
    38   18   22 1    
    39   18   83 1    
    40   19   20 am   BACKBONE|DICT|INTERRES
    41   19   21 2    
    42   20   84 1    
    43   20   85 1    
    44   22   23 am   BACKBONE|DICT|INTERRES
    45   22   86 1    
    46   23   24 2    
    47   23   25 1    
    48   25   26 1    
    49   25   27 1    
    50   25   87 1    
    51   26   88 1    
    52   26   89 1    
    53   26   90 1    
    54   27   28 am   BACKBONE|DICT|INTERRES
    55   27   91 1    
    56   28   29 2    
    57   28   30 1    
    58   30   31 1    
    59   30   32 1    
    60   30   92 1    
    61   31   93 1    
    62   31   94 1    
    63   31   95 1    
    64   32   33 am   BACKBONE|DICT|INTERRES
    65   32   96 1    
    66   33   34 2    
    67   33   35 1    
    68   35   36 1    
    69   35   37 1    
    70   35   97 1    
    71   36   98 1    
    72   36   99 1    
    73   36  100 1    
    74   37   38 am   BACKBONE|DICT|INTERRES
    75   37  101 1    
    76   38   39 2    
    77   38   40 1    
    78   40   41 1    
    79   40   42 1    
    80   40  102 1    
    81   41  103 1    
    82   41  104 1    
    83   41  105 1    
    84   42   43 am   BACKBONE|DICT|INTERRES
    85   42  106 1    
    86   43   44 2    
    87   43   45 1    
    88   45   46 1    
    89   45   49 1    
    90   45  107 1    
    91   46   47 1    
    92   46  108 1    
    93   46  109 1    
    94   47   48 1    
    95   48  110 1    
    96   48  111 1    
    97   49   50 am   BACKBONE|DICT|INTERRES
    98   49  112 1    
    99   50   51 2    
   100   50   52 1    
   101   52   53 1    
   102   52   54 1    
   103   52  113 1    
   104   53  114 1    
   105   53  115 1    
   106   53  116 1    
   107   54   55 am   BACKBONE|DICT|INTERRES
   108   54  117 1    
   109   55   56 2    
   110   55   57 1    
   111   57   58 1    
   112   57   59 1    
   113   57  118 1    
   114   58  119 1    
   115   58  120 1    
   116   58  121 1    
   117   59   60 am   BACKBONE|DICT|INTERRES
   118   59  122 1    
   119   60   61 2    
   120   60   62 1    
   121   62   63 1    
   122   62   64 1    
   123   62  123 1    
   124   63  124 1    
   125   63  125 1    
   126   63  126 1    
   127   64   65 am   BACKBONE|DICT|INTERRES
   128   64  127 1    
   129   65   66 2    
@<TRIPOS>SUBSTRUCTURE
     1 UNK         1 GROUP             0       ****    0 ROOT    
