@<TRIPOS>MOLECULE
3R135
127   129    1
SMALL
USER_CHARGES


@<TRIPOS>ATOM
      1 CA        -75.8356   22.1324  -74.7445 C.3       0 UNK        -0.1998 
      2 C         -76.6158   22.2244  -73.4429 C.2       0 UNK         0.4909 
      3 O         -76.5773   21.2993  -72.6320 O.2       0 UNK        -0.5240 
      4 N         -77.3265   23.3395  -73.2414 N.am      1 UNK        -0.4739 
      5 CA        -78.1213   23.6330  -72.0422 C.3       1 UNK         0.0864 
      6 C6        -78.2741   25.1630  -71.8440 C.3       11 UNK        -0.0881 
      7 S7        -79.0676   26.0071  -73.2624 S.3       11 UNK        -0.2682 
      8 C8        -79.8132   27.4544  -72.4532 C.3       11 UNK         0.0289 
      9 C9        -78.8259   28.6076  -72.3569 C.ar      11 UNK        -0.0687 
     10 C10       -78.9006   29.6692  -73.2638 C.ar      11 UNK        -0.0823 
     11 C11       -78.0024   30.7365  -73.1785 C.ar      11 UNK        -0.0830 
     12 C12       -77.0419   30.7491  -72.1654 C.ar      11 UNK        -0.1021 
     13 C13       -76.9297   29.6766  -71.2788 C.ar      11 UNK        -0.0753 
     14 C14       -77.8352   28.6148  -71.3692 C.ar      11 UNK        -0.0933 
     15 C15       -75.8211   29.6587  -70.2370 C.3       11 UNK         0.0166 
     16 S16       -74.2209   29.1742  -70.9681 S.3       11 UNK        -0.2615 
     17 C17       -73.5691   30.7644  -71.5964 C.3       11 UNK        -0.0865 
     18 CA        -73.6271   30.9070  -73.1480 C.3       10 UNK         0.0862 
     19 C         -73.2797   32.3470  -73.6339 C.2       10 UNK         0.5551 
     20 N         -72.6590   32.5218  -74.7945 N.am      10 UNK        -0.7319 
     21 O         -73.6022   33.3259  -72.9651 O.2       10 UNK        -0.5018 
     22 N         -72.9283   29.8330  -73.8704 N.am      10 UNK        -0.4509 
     23 C         -71.6248   29.5295  -73.8070 C.2       10 UNK         0.4899 
     24 O         -70.8061   30.1315  -73.1104 O.2       10 UNK        -0.4839 
     25 CA        -71.1698   28.3550  -74.6952 C.3       9 UNK         0.0222 
     26 CB        -69.7685   27.8165  -74.3358 C.3       9 UNK        -0.1966 
     27 N         -72.1710   27.2838  -74.7345 N.am      9 UNK        -0.4218 
     28 C         -72.5815   26.5031  -73.7221 C.2       9 UNK         0.5020 
     29 O         -72.0566   26.4740  -72.6085 O.2       9 UNK        -0.5274 
     30 CA        -73.8128   25.6159  -73.9872 C.3       8 UNK         0.0270 
     31 CB        -75.0612   26.2782  -73.3836 C.3       8 UNK        -0.1976 
     32 N         -74.0560   25.3630  -75.4098 N.am      8 UNK        -0.4313 
     33 C         -73.2701   24.6231  -76.2047 C.2       8 UNK         0.5041 
     34 O         -72.2990   23.9807  -75.8047 O.2       8 UNK        -0.5577 
     35 CA        -73.6023   24.6318  -77.7054 C.3       7 UNK         0.0284 
     36 CB        -74.6028   23.5203  -78.0539 C.3       7 UNK        -0.1958 
     37 N         -74.1226   25.9283  -78.1513 N.am      7 UNK        -0.4454 
     38 C         -73.3686   27.0251  -78.3128 C.2       7 UNK         0.5089 
     39 O         -72.1530   27.0554  -78.1236 O.2       7 UNK        -0.5125 
     40 CA        -74.0964   28.3146  -78.7283 C.3       6 UNK         0.0408 
     41 CB        -74.2986   28.3544  -80.2511 C.3       6 UNK        -0.1791 
     42 N         -75.3860   28.4918  -78.0562 N.am      6 UNK        -0.4762 
     43 C         -75.5335   28.7161  -76.7416 C.2       6 UNK         0.5007 
     44 O         -74.5916   28.7748  -75.9494 O.2       6 UNK        -0.5032 
     45 CA        -76.9827   28.8529  -76.2249 C.3       5 UNK         0.0783 
     46 C46       -77.5540   30.2717  -76.4895 C.3       11 UNK        -0.0857 
     47 S47       -76.7883   31.5980  -75.4969 S.3       11 UNK        -0.2512 
     48 C48       -78.0360   31.8640  -74.1961 C.3       11 UNK         0.0225 
     49 N         -77.8880   27.8366  -76.7805 N.am      5 UNK        -0.4615 
     50 C         -77.7138   26.5093  -76.7635 C.2       4 UNK         0.5053 
     51 O         -76.7421   25.9406  -76.2626 O.2       4 UNK        -0.5105 
     52 CA        -78.8325   25.6878  -77.4116 C.3       4 UNK         0.0263 
     53 CB        -78.3504   24.3123  -77.9108 C.3       4 UNK        -0.1981 
     54 N         -79.9129   25.5086  -76.4456 N.am      4 UNK        -0.4224 
     55 C         -81.2075   25.3859  -76.7659 C.2       3 UNK         0.4895 
     56 O         -81.6363   25.4818  -77.9174 O.2       3 UNK        -0.5091 
     57 CA        -82.1609   25.0198  -75.6174 C.3       3 UNK         0.0250 
     58 CB        -83.6272   24.8757  -76.0852 C.3       3 UNK        -0.1996 
     59 N         -81.6702   23.7795  -75.0170 N.am      3 UNK        -0.4254 
     60 C         -82.0942   23.2056  -73.8839 C.2       2 UNK         0.5004 
     61 O         -83.0172   23.6300  -73.1886 O.2       2 UNK        -0.5226 
     62 CA        -81.2999   21.9710  -73.4287 C.3       2 UNK         0.0269 
     63 CB        -81.3409   20.8381  -74.4705 C.3       2 UNK        -0.1926 
     64 N         -79.9140   22.3626  -73.1696 N.am      2 UNK        -0.4687 
     65 C         -79.5011   22.9377  -72.0310 C.2       1 UNK         0.5165 
     66 O         -80.1807   22.9717  -71.0036 O.2       1 UNK        -0.5079 
     67 H67       -76.1521   21.2604  -75.3160 H         1 UNK         0.0900 
     68 H68       -75.9860   23.0175  -75.3606 H         1 UNK         0.0900 
     69 H69       -74.7693   22.0409  -74.5391 H         1 UNK         0.0900 
     70 H70       -77.3240   24.0701  -73.9401 H         1 UNK         0.2959 
     71 H71       -77.5815   23.2433  -71.1760 H         1 UNK         0.1079 
     72 H72       -77.2948   25.6110  -71.6782 H         1 UNK         0.0837 
     73 H73       -78.8392   25.3672  -70.9326 H         1 UNK         0.0837 
     74 H74       -80.1857   27.1909  -71.4624 H         1 UNK         0.0685 
     75 H75       -80.6881   27.7569  -73.0304 H         1 UNK         0.0685 
     76 H76       -79.6497   29.6578  -74.0435 H         1 UNK         0.1434 
     77 H77       -76.3540   31.5795  -72.0941 H         1 UNK         0.1329 
     78 H78       -77.7627   27.7881  -70.6768 H         1 UNK         0.1335 
     79 H79       -76.0653   28.9475  -69.4465 H         1 UNK         0.0680 
     80 H80       -75.7415   30.6315  -69.7501 H         1 UNK         0.0680 
     81 H81       -72.5407   30.8689  -71.2483 H         1 UNK         0.1032 
     82 H82       -74.1156   31.5774  -71.1168 H         1 UNK         0.1032 
     83 H83       -74.6649   30.7754  -73.4456 H         1 UNK         0.0461 
     84 H84       -72.4477   33.4559  -75.1077 H         1 UNK         0.3453 
     85 H85       -72.4085   31.7275  -75.3603 H         1 UNK         0.3453 
     86 H86       -73.5104   29.3139  -74.5237 H         1 UNK         0.2984 
     87 H87       -71.1170   28.7476  -75.7117 H         1 UNK         0.0554 
     88 H88       -69.0108   28.5905  -74.4625 H         1 UNK         0.0847 
     89 H89       -69.4884   26.9808  -74.9769 H         1 UNK         0.0847 
     90 H90       -69.7143   27.4795  -73.3003 H         1 UNK         0.0847 
     91 H91       -72.7019   27.2275  -75.5937 H         1 UNK         0.3141 
     92 H92       -73.6529   24.6547  -73.4946 H         1 UNK         0.0743 
     93 H93       -74.9817   26.3417  -72.2978 H         1 UNK         0.0784 
     94 H94       -75.2046   27.2935  -73.7546 H         1 UNK         0.0784 
     95 H95       -75.9616   25.7153  -73.6175 H         1 UNK         0.0784 
     96 H96       -74.8919   25.7844  -75.8088 H         1 UNK         0.3213 
     97 H97       -72.6753   24.4307  -78.2475 H         1 UNK         0.0855 
     98 H98       -75.5581   23.6708  -77.5552 H         1 UNK         0.0814 
     99 H99       -74.2244   22.5445  -77.7461 H         1 UNK         0.0814 
    100 H100      -74.7869   23.4727  -79.1273 H         1 UNK         0.0814 
    101 H101      -75.1207   26.0045  -78.2822 H         1 UNK         0.3105 
    102 H102      -73.4585   29.1568  -78.4508 H         1 UNK         0.0547 
    103 H103      -74.7311   29.3030  -80.5695 H         1 UNK         0.0837 
    104 H104      -73.3469   28.2443  -80.7730 H         1 UNK         0.0837 
    105 H105      -74.9531   27.5533  -80.5964 H         1 UNK         0.0837 
    106 H106      -76.2141   28.4495  -78.6326 H         1 UNK         0.3020 
    107 H107      -76.9497   28.6836  -75.1461 H         1 UNK         0.1245 
    108 H108      -78.6272   30.2823  -76.2943 H         1 UNK         0.0781 
    109 H109      -77.4537   30.5369  -77.5438 H         1 UNK         0.0781 
    110 H110      -79.0280   31.9658  -74.6387 H         1 UNK         0.0836 
    111 H111      -77.8282   32.8123  -73.6979 H         1 UNK         0.0836 
    112 H112      -78.7329   28.1915  -77.2041 H         1 UNK         0.3022 
    113 H113      -79.1956   26.2515  -78.2739 H         1 UNK         0.0747 
    114 H114      -79.1529   23.7692  -78.4101 H         1 UNK         0.0793 
    115 H115      -77.5425   24.4235  -78.6343 H         1 UNK         0.0793 
    116 H116      -77.9854   23.6887  -77.0940 H         1 UNK         0.0793 
    117 H117      -79.6363   25.4913  -75.4700 H         1 UNK         0.3047 
    118 H118      -82.1036   25.8165  -74.8727 H         1 UNK         0.0822 
    119 H119      -83.9698   25.7842  -76.5822 H         1 UNK         0.0807 
    120 H120      -84.3043   24.6991  -75.2500 H         1 UNK         0.0807 
    121 H121      -83.7443   24.0521  -76.7905 H         1 UNK         0.0807 
    122 H122      -80.9048   23.3460  -75.5138 H         1 UNK         0.2946 
    123 H123      -81.7563   21.5988  -72.5082 H         1 UNK         0.1144 
    124 H124      -80.8486   19.9419  -74.0922 H         1 UNK         0.0793 
    125 H125      -80.8528   21.1129  -75.4059 H         1 UNK         0.0793 
    126 H126      -82.3703   20.5644  -74.7064 H         1 UNK         0.0793 
    127 H127      -79.2756   22.3637  -73.9508 H         1 UNK         0.2896 
@<TRIPOS>BOND
     1    1    2 1    
     2    1   67 1    
     3    1   68 1    
     4    1   69 1    
     5    2    3 2    
     6    2    4 am   BACKBONE|DICT|INTERRES
     7    4    5 1    
     8    4   70 1    
     9    5    6 1    
    10    5   65 1    
    11    5   71 1    
    12    6    7 1    
    13    6   72 1    
    14    6   73 1    
    15    7    8 1    
    16    8    9 1    
    17    8   74 1    
    18    8   75 1    
    19    9   10 ar   
    20    9   14 ar   
    21   10   11 ar   
    22   10   76 1    
    23   11   12 ar   
    24   11   48 1    
    25   12   13 ar   
    26   12   77 1    
    27   13   14 ar   
    28   13   15 1    
    29   14   78 1    
    30   15   16 1    
    31   15   79 1    
    32   15   80 1    
    33   16   17 1    
    34   17   18 1    
    35   17   81 1    
    36   17   82 1    
    37   18   19 1    
    38   18   22 1    
    39   18   83 1    
    40   19   20 am   BACKBONE|DICT|INTERRES
    41   19   21 2    
    42   20   84 1    
    43   20   85 1    
    44   22   23 am   BACKBONE|DICT|INTERRES
    45   22   86 1    
    46   23   24 2    
    47   23   25 1    
    48   25   26 1    
    49   25   27 1    
    50   25   87 1    
    51   26   88 1    
    52   26   89 1    
    53   26   90 1    
    54   27   28 am   BACKBONE|DICT|INTERRES
    55   27   91 1    
    56   28   29 2    
    57   28   30 1    
    58   30   31 1    
    59   30   32 1    
    60   30   92 1    
    61   31   93 1    
    62   31   94 1    
    63   31   95 1    
    64   32   33 am   BACKBONE|DICT|INTERRES
    65   32   96 1    
    66   33   34 2    
    67   33   35 1    
    68   35   36 1    
    69   35   37 1    
    70   35   97 1    
    71   36   98 1    
    72   36   99 1    
    73   36  100 1    
    74   37   38 am   BACKBONE|DICT|INTERRES
    75   37  101 1    
    76   38   39 2    
    77   38   40 1    
    78   40   41 1    
    79   40   42 1    
    80   40  102 1    
    81   41  103 1    
    82   41  104 1    
    83   41  105 1    
    84   42   43 am   BACKBONE|DICT|INTERRES
    85   42  106 1    
    86   43   44 2    
    87   43   45 1    
    88   45   46 1    
    89   45   49 1    
    90   45  107 1    
    91   46   47 1    
    92   46  108 1    
    93   46  109 1    
    94   47   48 1    
    95   48  110 1    
    96   48  111 1    
    97   49   50 am   BACKBONE|DICT|INTERRES
    98   49  112 1    
    99   50   51 2    
   100   50   52 1    
   101   52   53 1    
   102   52   54 1    
   103   52  113 1    
   104   53  114 1    
   105   53  115 1    
   106   53  116 1    
   107   54   55 am   BACKBONE|DICT|INTERRES
   108   54  117 1    
   109   55   56 2    
   110   55   57 1    
   111   57   58 1    
   112   57   59 1    
   113   57  118 1    
   114   58  119 1    
   115   58  120 1    
   116   58  121 1    
   117   59   60 am   BACKBONE|DICT|INTERRES
   118   59  122 1    
   119   60   61 2    
   120   60   62 1    
   121   62   63 1    
   122   62   64 1    
   123   62  123 1    
   124   63  124 1    
   125   63  125 1    
   126   63  126 1    
   127   64   65 am   BACKBONE|DICT|INTERRES
   128   64  127 1    
   129   65   66 2    
@<TRIPOS>SUBSTRUCTURE
     1 UNK         1 GROUP             0       ****    0 ROOT    
