@<TRIPOS>MOLECULE
3R135
127   129    1
SMALL
USER_CHARGES


@<TRIPOS>ATOM
      1 CA        -84.9403   30.2588  -76.1990 C.3       0 UNK        -0.1998 
      2 C         -83.5775   29.6122  -76.3962 C.2       0 UNK         0.4909 
      3 O         -83.0753   29.5735  -77.5198 O.2       0 UNK        -0.5240 
      4 N         -82.9755   29.1059  -75.3117 N.am      1 UNK        -0.4739 
      5 CA        -81.6619   28.4448  -75.3107 C.3       1 UNK         0.0864 
      6 C6        -81.0869   28.3169  -73.8788 C.3       11 UNK        -0.0881 
      7 S7        -80.7620   29.9497  -73.1411 S.3       11 UNK        -0.2682 
      8 C8        -80.3951   29.4947  -71.4180 C.3       11 UNK         0.0289 
      9 C9        -79.0130   28.8745  -71.2502 C.ar      11 UNK        -0.0687 
     10 C10       -78.8757   27.5655  -70.7793 C.ar      11 UNK        -0.0823 
     11 C11       -77.6090   27.0271  -70.5284 C.ar      11 UNK        -0.0830 
     12 C12       -76.4685   27.7987  -70.7845 C.ar      11 UNK        -0.1021 
     13 C13       -76.5936   29.1120  -71.2538 C.ar      11 UNK        -0.0753 
     14 C14       -77.8674   29.6391  -71.4882 C.ar      11 UNK        -0.0933 
     15 C15       -75.3698   30.0005  -71.4392 C.3       11 UNK         0.0166 
     16 S16       -74.7317   29.9473  -73.1431 S.3       11 UNK        -0.2615 
     17 C17       -73.2944   28.8307  -72.9813 C.3       11 UNK        -0.0865 
     18 CA        -71.9659   29.5608  -73.3045 C.3       10 UNK         0.0862 
     19 C         -70.7220   28.7991  -72.7581 C.2       10 UNK         0.5551 
     20 N         -69.6689   28.5760  -73.5366 N.am      10 UNK        -0.7319 
     21 O         -70.6959   28.4279  -71.5871 O.2       10 UNK        -0.5018 
     22 N         -71.8812   29.8447  -74.7433 N.am      10 UNK        -0.4509 
     23 C         -71.4816   30.9974  -75.2907 C.2       10 UNK         0.4899 
     24 O         -71.1940   32.0026  -74.6386 O.2       10 UNK        -0.4839 
     25 CA        -71.3861   31.0289  -76.8325 C.3       9 UNK         0.0222 
     26 CB        -70.4160   32.1152  -77.3448 C.3       9 UNK        -0.1966 
     27 N         -71.0656   29.7249  -77.4333 N.am      9 UNK        -0.4218 
     28 C         -69.9871   28.9645  -77.1854 C.2       9 UNK         0.5020 
     29 O         -69.0864   29.2867  -76.4078 O.2       9 UNK        -0.5274 
     30 CA        -69.9332   27.5990  -77.9011 C.3       8 UNK         0.0270 
     31 CB        -68.8859   26.6475  -77.2827 C.3       8 UNK        -0.1976 
     32 N         -71.2378   26.9246  -77.9937 N.am      8 UNK        -0.4313 
     33 C         -72.0558   26.5987  -76.9808 C.2       8 UNK         0.5041 
     34 O         -71.8453   26.8895  -75.8008 O.2       8 UNK        -0.5577 
     35 CA        -73.3053   25.7859  -77.3703 C.3       7 UNK         0.0284 
     36 CB        -72.9348   24.3103  -77.5949 C.3       7 UNK        -0.1958 
     37 N         -74.3700   25.8500  -76.3675 N.am      7 UNK        -0.4454 
     38 C         -75.0465   26.9542  -76.0218 C.2       7 UNK         0.5089 
     39 O         -74.8740   28.0506  -76.5572 O.2       7 UNK        -0.5125 
     40 CA        -76.1216   26.8160  -74.9253 C.3       6 UNK         0.0408 
     41 CB        -77.5144   27.0960  -75.5051 C.3       6 UNK        -0.1791 
     42 N         -76.1400   25.5048  -74.2717 N.am      6 UNK        -0.4762 
     43 C         -75.2708   25.1026  -73.3307 C.2       6 UNK         0.5007 
     44 O         -74.3468   25.7967  -72.9130 O.2       6 UNK        -0.5032 
     45 CA        -75.4377   23.6826  -72.7508 C.3       5 UNK         0.0783 
     46 C46       -75.9291   23.7251  -71.2838 C.3       11 UNK        -0.0857 
     47 S47       -77.6576   24.2937  -71.0931 S.3       11 UNK        -0.2512 
     48 C48       -77.4938   25.6495  -69.8879 C.3       11 UNK         0.0225 
     49 N         -76.2652   22.7991  -73.5764 N.am      5 UNK        -0.4615 
     50 C         -75.9414   22.3530  -74.7965 C.2       4 UNK         0.5053 
     51 O         -74.8736   22.6084  -75.3527 O.2       4 UNK        -0.5105 
     52 CA        -76.9959   21.5068  -75.5333 C.3       4 UNK         0.0263 
     53 CB        -76.6766   20.0103  -75.3882 C.3       4 UNK        -0.1981 
     54 N         -78.3777   21.7524  -75.0976 N.am      4 UNK        -0.4224 
     55 C         -79.0233   22.9196  -75.2266 C.2       3 UNK         0.4895 
     56 O         -78.5081   23.9412  -75.6857 O.2       3 UNK        -0.5091 
     57 CA        -80.4686   22.9621  -74.7224 C.3       3 UNK         0.0250 
     58 CB        -80.5198   23.3335  -73.2298 C.3       3 UNK        -0.1996 
     59 N         -81.2058   23.9512  -75.5011 N.am      3 UNK        -0.4254 
     60 C         -82.5213   23.9408  -75.7358 C.2       2 UNK         0.5004 
     61 O         -83.2872   23.0904  -75.2773 O.2       2 UNK        -0.5226 
     62 CA        -83.0706   25.0835  -76.6137 C.3       2 UNK         0.0269 
     63 CB        -84.5729   24.9302  -76.9189 C.3       2 UNK        -0.1926 
     64 N         -82.8484   26.3967  -76.0028 N.am      2 UNK        -0.4687 
     65 C         -81.6886   27.0693  -76.0087 C.2       1 UNK         0.5165 
     66 O         -80.6643   26.6405  -76.5407 O.2       1 UNK        -0.5079 
     67 H67       -84.9099   31.3012  -76.5151 H         1 UNK         0.0900 
     68 H68       -85.6905   29.7427  -76.7974 H         1 UNK         0.0900 
     69 H69       -85.2587   30.2301  -75.1571 H         1 UNK         0.0900 
     70 H70       -83.4211   29.1933  -74.4093 H         1 UNK         0.2959 
     71 H71       -80.9780   29.0662  -75.8940 H         1 UNK         0.1079 
     72 H72       -80.1492   27.7619  -73.8765 H         1 UNK         0.0837 
     73 H73       -81.7720   27.7597  -73.2370 H         1 UNK         0.0837 
     74 H74       -81.1744   28.8280  -71.0456 H         1 UNK         0.0685 
     75 H75       -80.4489   30.3948  -70.8041 H         1 UNK         0.0685 
     76 H76       -79.7570   26.9755  -70.5667 H         1 UNK         0.1434 
     77 H77       -75.4864   27.3920  -70.5847 H         1 UNK         0.1329 
     78 H78       -77.9707   30.6589  -71.8336 H         1 UNK         0.1335 
     79 H79       -75.6353   31.0337  -71.2097 H         1 UNK         0.0680 
     80 H80       -74.5917   29.7355  -70.7223 H         1 UNK         0.0680 
     81 H81       -73.4241   27.9962  -73.6699 H         1 UNK         0.1032 
     82 H82       -73.2837   28.3896  -71.9835 H         1 UNK         0.1032 
     83 H83       -71.9713   30.5030  -72.7535 H         1 UNK         0.0461 
     84 H84       -69.6539   28.8864  -74.5016 H         1 UNK         0.3453 
     85 H85       -68.8732   28.0898  -73.1565 H         1 UNK         0.3453 
     86 H86       -72.0428   29.0447  -75.3443 H         1 UNK         0.2984 
     87 H87       -72.3851   31.2866  -77.1871 H         1 UNK         0.0554 
     88 H88       -70.7284   33.1074  -77.0167 H         1 UNK         0.0847 
     89 H89       -70.3792   32.1343  -78.4339 H         1 UNK         0.0847 
     90 H90       -69.4016   31.9566  -76.9773 H         1 UNK         0.0847 
     91 H91       -71.7620   29.3524  -78.0642 H         1 UNK         0.3141 
     92 H92       -69.6211   27.8101  -78.9250 H         1 UNK         0.0743 
     93 H93       -67.8875   27.0856  -77.3166 H         1 UNK         0.0784 
     94 H94       -69.1097   26.4273  -76.2381 H         1 UNK         0.0784 
     95 H95       -68.8408   25.7015  -77.8223 H         1 UNK         0.0784 
     96 H96       -71.5122   26.6488  -78.9273 H         1 UNK         0.3213 
     97 H97       -73.7040   26.1955  -78.3007 H         1 UNK         0.0855 
     98 H98       -72.5417   23.8533  -76.6855 H         1 UNK         0.0814 
     99 H99       -72.1731   24.2039  -78.3683 H         1 UNK         0.0814 
    100 H100      -73.7995   23.7271  -77.9126 H         1 UNK         0.0814 
    101 H101      -74.5669   24.9978  -75.8603 H         1 UNK         0.3105 
    102 H102      -75.9225   27.5669  -74.1613 H         1 UNK         0.0547 
    103 H103      -77.7344   26.4552  -76.3598 H         1 UNK         0.0837 
    104 H104      -77.5995   28.1301  -75.8406 H         1 UNK         0.0837 
    105 H105      -78.2883   26.9284  -74.7592 H         1 UNK         0.0837 
    106 H106      -76.8694   24.8663  -74.5697 H         1 UNK         0.3020 
    107 H107      -74.4333   23.2523  -72.7420 H         1 UNK         0.1245 
    108 H108      -75.2567   24.3405  -70.6838 H         1 UNK         0.0781 
    109 H109      -75.8633   22.7254  -70.8517 H         1 UNK         0.0781 
    110 H110      -76.5628   25.5635  -69.3267 H         1 UNK         0.0836 
    111 H111      -78.2857   25.5374  -69.1457 H         1 UNK         0.0836 
    112 H112      -77.1682   22.5581  -73.1954 H         1 UNK         0.3022 
    113 H113      -76.9331   21.7686  -76.5918 H         1 UNK         0.0747 
    114 H114      -77.3547   19.3991  -75.9841 H         1 UNK         0.0793 
    115 H115      -75.6636   19.7924  -75.7302 H         1 UNK         0.0793 
    116 H116      -76.7479   19.6803  -74.3510 H         1 UNK         0.0793 
    117 H117      -78.8691   20.9663  -74.6956 H         1 UNK         0.3047 
    118 H118      -80.9179   21.9777  -74.8716 H         1 UNK         0.0822 
    119 H119      -81.5442   23.3411  -72.8571 H         1 UNK         0.0807 
    120 H120      -80.0921   24.3206  -73.0483 H         1 UNK         0.0807 
    121 H121      -79.9622   22.6176  -72.6249 H         1 UNK         0.0807 
    122 H122      -80.6353   24.6841  -75.9166 H         1 UNK         0.2946 
    123 H123      -82.5341   25.0414  -77.5648 H         1 UNK         0.1144 
    124 H124      -84.9230   25.7150  -77.5899 H         1 UNK         0.0793 
    125 H125      -85.1769   24.9701  -76.0115 H         1 UNK         0.0793 
    126 H126      -84.7775   23.9758  -77.4060 H         1 UNK         0.0793 
    127 H127      -83.6355   26.8149  -75.5283 H         1 UNK         0.2896 
@<TRIPOS>BOND
     1    1    2 1    
     2    1   67 1    
     3    1   68 1    
     4    1   69 1    
     5    2    3 2    
     6    2    4 am   BACKBONE|DICT|INTERRES
     7    4    5 1    
     8    4   70 1    
     9    5    6 1    
    10    5   65 1    
    11    5   71 1    
    12    6    7 1    
    13    6   72 1    
    14    6   73 1    
    15    7    8 1    
    16    8    9 1    
    17    8   74 1    
    18    8   75 1    
    19    9   10 ar   
    20    9   14 ar   
    21   10   11 ar   
    22   10   76 1    
    23   11   12 ar   
    24   11   48 1    
    25   12   13 ar   
    26   12   77 1    
    27   13   14 ar   
    28   13   15 1    
    29   14   78 1    
    30   15   16 1    
    31   15   79 1    
    32   15   80 1    
    33   16   17 1    
    34   17   18 1    
    35   17   81 1    
    36   17   82 1    
    37   18   19 1    
    38   18   22 1    
    39   18   83 1    
    40   19   20 am   BACKBONE|DICT|INTERRES
    41   19   21 2    
    42   20   84 1    
    43   20   85 1    
    44   22   23 am   BACKBONE|DICT|INTERRES
    45   22   86 1    
    46   23   24 2    
    47   23   25 1    
    48   25   26 1    
    49   25   27 1    
    50   25   87 1    
    51   26   88 1    
    52   26   89 1    
    53   26   90 1    
    54   27   28 am   BACKBONE|DICT|INTERRES
    55   27   91 1    
    56   28   29 2    
    57   28   30 1    
    58   30   31 1    
    59   30   32 1    
    60   30   92 1    
    61   31   93 1    
    62   31   94 1    
    63   31   95 1    
    64   32   33 am   BACKBONE|DICT|INTERRES
    65   32   96 1    
    66   33   34 2    
    67   33   35 1    
    68   35   36 1    
    69   35   37 1    
    70   35   97 1    
    71   36   98 1    
    72   36   99 1    
    73   36  100 1    
    74   37   38 am   BACKBONE|DICT|INTERRES
    75   37  101 1    
    76   38   39 2    
    77   38   40 1    
    78   40   41 1    
    79   40   42 1    
    80   40  102 1    
    81   41  103 1    
    82   41  104 1    
    83   41  105 1    
    84   42   43 am   BACKBONE|DICT|INTERRES
    85   42  106 1    
    86   43   44 2    
    87   43   45 1    
    88   45   46 1    
    89   45   49 1    
    90   45  107 1    
    91   46   47 1    
    92   46  108 1    
    93   46  109 1    
    94   47   48 1    
    95   48  110 1    
    96   48  111 1    
    97   49   50 am   BACKBONE|DICT|INTERRES
    98   49  112 1    
    99   50   51 2    
   100   50   52 1    
   101   52   53 1    
   102   52   54 1    
   103   52  113 1    
   104   53  114 1    
   105   53  115 1    
   106   53  116 1    
   107   54   55 am   BACKBONE|DICT|INTERRES
   108   54  117 1    
   109   55   56 2    
   110   55   57 1    
   111   57   58 1    
   112   57   59 1    
   113   57  118 1    
   114   58  119 1    
   115   58  120 1    
   116   58  121 1    
   117   59   60 am   BACKBONE|DICT|INTERRES
   118   59  122 1    
   119   60   61 2    
   120   60   62 1    
   121   62   63 1    
   122   62   64 1    
   123   62  123 1    
   124   63  124 1    
   125   63  125 1    
   126   63  126 1    
   127   64   65 am   BACKBONE|DICT|INTERRES
   128   64  127 1    
   129   65   66 2    
@<TRIPOS>SUBSTRUCTURE
     1 UNK         1 GROUP             0       ****    0 ROOT    
