@<TRIPOS>MOLECULE
3R135
127   129    1
SMALL
USER_CHARGES


@<TRIPOS>ATOM
      1 CA        -80.7755   22.3193  -70.1481 C.3       0 UNK        -0.1998 
      2 C         -81.3020   23.7082  -70.4764 C.2       0 UNK         0.4909 
      3 O         -82.4319   24.0370  -70.1143 O.2       0 UNK        -0.5240 
      4 N         -80.4896   24.5253  -71.1599 N.am      1 UNK        -0.4739 
      5 CA        -80.8146   25.9051  -71.5525 C.3       1 UNK         0.0864 
      6 C6        -79.5733   26.6644  -72.0814 C.3       11 UNK        -0.0881 
      7 S7        -78.1214   26.6218  -70.9766 S.3       11 UNK        -0.2682 
      8 C8        -76.7612   26.8324  -72.1743 C.3       11 UNK         0.0289 
      9 C9        -76.7168   28.2445  -72.7450 C.ar      11 UNK        -0.0687 
     10 C10       -77.5606   28.6037  -73.7994 C.ar      11 UNK        -0.0823 
     11 C11       -77.5458   29.8981  -74.3215 C.ar      11 UNK        -0.0830 
     12 C12       -76.6610   30.8401  -73.7872 C.ar      11 UNK        -0.1021 
     13 C13       -75.7948   30.4926  -72.7438 C.ar      11 UNK        -0.0753 
     14 C14       -75.8350   29.1949  -72.2216 C.ar      11 UNK        -0.0933 
     15 C15       -74.8288   31.5185  -72.1643 C.3       11 UNK         0.0166 
     16 S16       -73.6721   32.1588  -73.4199 S.3       11 UNK        -0.2615 
     17 C17       -72.2633   32.6930  -72.3861 C.3       11 UNK        -0.0865 
     18 CA        -70.9515   31.9122  -72.7005 C.3       10 UNK         0.0862 
     19 C         -69.7315   32.4459  -71.8891 C.2       10 UNK         0.5551 
     20 N         -68.7752   31.6079  -71.5073 N.am      10 UNK        -0.7319 
     21 O         -69.6310   33.6423  -71.6268 O.2       10 UNK        -0.5018 
     22 N         -71.1180   30.4464  -72.6760 N.am      10 UNK        -0.4509 
     23 C         -71.4877   29.6990  -71.6295 C.2       10 UNK         0.4899 
     24 O         -71.7129   30.1524  -70.5065 O.2       10 UNK        -0.4839 
     25 CA        -71.6549   28.1905  -71.9016 C.3       9 UNK         0.0222 
     26 CB        -72.0865   27.4068  -70.6474 C.3       9 UNK        -0.1966 
     27 N         -72.6230   27.9361  -72.9719 N.am      9 UNK        -0.4218 
     28 C         -72.3805   28.0273  -74.2852 C.2       9 UNK         0.5020 
     29 O         -71.2899   28.3517  -74.7633 O.2       9 UNK        -0.5274 
     30 CA        -73.5766   27.7657  -75.2164 C.3       8 UNK         0.0270 
     31 CB        -74.0563   29.0915  -75.8284 C.3       8 UNK        -0.1976 
     32 N         -73.2872   26.8198  -76.2974 N.am      8 UNK        -0.4313 
     33 C         -72.8064   25.5745  -76.1580 C.2       8 UNK         0.5041 
     34 O         -72.4891   25.0694  -75.0790 O.2       8 UNK        -0.5577 
     35 CA        -72.7333   24.7411  -77.4478 C.3       7 UNK         0.0284 
     36 CB        -72.2933   23.2835  -77.2112 C.3       7 UNK        -0.1958 
     37 N         -74.0508   24.7573  -78.0790 N.am      7 UNK        -0.4454 
     38 C         -74.2891   24.9027  -79.3892 C.2       7 UNK         0.5089 
     39 O         -73.4024   24.9385  -80.2430 O.2       7 UNK        -0.5125 
     40 CA        -75.7610   25.0582  -79.8325 C.3       6 UNK         0.0408 
     41 CB        -76.2900   23.7303  -80.3958 C.3       6 UNK        -0.1791 
     42 N         -76.6590   25.5239  -78.7680 N.am      6 UNK        -0.4762 
     43 C         -76.5481   26.7067  -78.1389 C.2       6 UNK         0.5007 
     44 O         -75.7474   27.5723  -78.4926 O.2       6 UNK        -0.5032 
     45 CA        -77.4012   26.9394  -76.8653 C.3       5 UNK         0.0783 
     46 C46       -78.5409   27.9640  -77.1002 C.3       11 UNK        -0.0857 
     47 S47       -77.9590   29.6974  -77.0703 S.3       11 UNK        -0.2512 
     48 C48       -78.5102   30.2854  -75.4354 C.3       11 UNK         0.0225 
     49 N         -77.9110   25.6987  -76.2628 N.am      5 UNK        -0.4615 
     50 C         -77.1441   24.6982  -75.7997 C.2       4 UNK         0.5053 
     51 O         -75.9190   24.7680  -75.7352 O.2       4 UNK        -0.5105 
     52 CA        -77.8294   23.3765  -75.3992 C.3       4 UNK         0.0263 
     53 CB        -77.9010   23.2541  -73.8686 C.3       4 UNK        -0.1981 
     54 N         -79.1714   23.1871  -75.9584 N.am      4 UNK        -0.4224 
     55 C         -79.5077   23.2138  -77.2573 C.2       3 UNK         0.4895 
     56 O         -78.6900   23.3241  -78.1711 O.2       3 UNK        -0.5091 
     57 CA        -81.0121   23.1732  -77.5932 C.3       3 UNK         0.0250 
     58 CB        -81.4073   21.7793  -78.1064 C.3       3 UNK        -0.1996 
     59 N         -81.9011   23.5487  -76.4829 N.am      3 UNK        -0.4254 
     60 C         -81.8980   24.7242  -75.8344 C.2       2 UNK         0.5004 
     61 O         -81.1184   25.6428  -76.0973 O.2       2 UNK        -0.5226 
     62 CA        -82.8642   24.8817  -74.6488 C.3       2 UNK         0.0269 
     63 CB        -83.9037   23.7488  -74.5152 C.3       2 UNK        -0.1926 
     64 N         -82.0529   24.9315  -73.4347 N.am      2 UNK        -0.4687 
     65 C         -81.9271   25.9881  -72.6224 C.2       1 UNK         0.5165 
     66 O         -82.6077   27.0109  -72.7131 O.2       1 UNK        -0.5079 
     67 H67       -79.7685   22.1622  -70.5343 H         1 UNK         0.0900 
     68 H68       -81.4265   21.5596  -70.5799 H         1 UNK         0.0900 
     69 H69       -80.7509   22.1734  -69.0685 H         1 UNK         0.0900 
     70 H70       -79.5516   24.2217  -71.3777 H         1 UNK         0.2959 
     71 H71       -81.1822   26.4239  -70.6643 H         1 UNK         0.1079 
     72 H72       -79.2806   26.2538  -73.0490 H         1 UNK         0.0837 
     73 H73       -79.8239   27.7132  -72.2546 H         1 UNK         0.0837 
     74 H74       -75.8202   26.6015  -71.6729 H         1 UNK         0.0685 
     75 H75       -76.8577   26.1041  -72.9807 H         1 UNK         0.0685 
     76 H76       -78.2437   27.8776  -74.2116 H         1 UNK         0.1434 
     77 H77       -76.6395   31.8459  -74.1843 H         1 UNK         0.1329 
     78 H78       -75.1855   28.9270  -71.3996 H         1 UNK         0.1335 
     79 H79       -74.2644   31.0751  -71.3430 H         1 UNK         0.0680 
     80 H80       -75.3929   32.3496  -71.7392 H         1 UNK         0.0680 
     81 H81       -72.5147   32.6075  -71.3279 H         1 UNK         0.1032 
     82 H82       -72.1175   33.7595  -72.5667 H         1 UNK         0.1032 
     83 H83       -70.6983   32.1380  -73.7369 H         1 UNK         0.0461 
     84 H84       -67.9837   31.9602  -70.9923 H         1 UNK         0.3453 
     85 H85       -68.8412   30.6272  -71.7273 H         1 UNK         0.3453 
     86 H86       -70.9688   29.9679  -73.5584 H         1 UNK         0.2984 
     87 H87       -70.6802   27.8076  -72.2114 H         1 UNK         0.0554 
     88 H88       -73.0550   27.7403  -70.2726 H         1 UNK         0.0847 
     89 H89       -71.3641   27.5340  -69.8399 H         1 UNK         0.0847 
     90 H90       -72.1546   26.3378  -70.8506 H         1 UNK         0.0847 
     91 H91       -73.5578   27.6983  -72.6774 H         1 UNK         0.3141 
     92 H92       -74.3946   27.3405  -74.6312 H         1 UNK         0.0743 
     93 H93       -74.9767   28.9705  -76.3960 H         1 UNK         0.0784 
     94 H94       -74.2626   29.8249  -75.0514 H         1 UNK         0.0784 
     95 H95       -73.3067   29.5259  -76.4909 H         1 UNK         0.0784 
     96 H96       -73.5276   27.1295  -77.2290 H         1 UNK         0.3213 
     97 H97       -71.9982   25.2250  -78.0948 H         1 UNK         0.0855 
     98 H98       -72.9892   22.7560  -76.5576 H         1 UNK         0.0814 
     99 H99       -71.3086   23.2434  -76.7439 H         1 UNK         0.0814 
    100 H100      -72.2300   22.7318  -78.1492 H         1 UNK         0.0814 
    101 H101      -74.8348   24.7572  -77.4312 H         1 UNK         0.3105 
    102 H102      -75.7840   25.8011  -80.6323 H         1 UNK         0.0547 
    103 H103      -75.6688   23.3798  -81.2212 H         1 UNK         0.0837 
    104 H104      -76.2981   22.9463  -79.6375 H         1 UNK         0.0837 
    105 H105      -77.3056   23.8363  -80.7774 H         1 UNK         0.0837 
    106 H106      -77.3488   24.8548  -78.4384 H         1 UNK         0.3020 
    107 H107      -76.7117   27.3578  -76.1303 H         1 UNK         0.1245 
    108 H108      -79.3180   27.8516  -76.3430 H         1 UNK         0.0781 
    109 H109      -79.0440   27.7769  -78.0509 H         1 UNK         0.0781 
    110 H110      -79.5104   29.9088  -75.2160 H         1 UNK         0.0836 
    111 H111      -78.6070   31.3713  -75.4792 H         1 UNK         0.0836 
    112 H112      -78.9162   25.5683  -76.2878 H         1 UNK         0.3022 
    113 H113      -77.2032   22.5672  -75.7800 H         1 UNK         0.0747 
    114 H114      -78.2751   22.2762  -73.5647 H         1 UNK         0.0793 
    115 H115      -76.9135   23.3730  -73.4197 H         1 UNK         0.0793 
    116 H116      -78.5496   24.0136  -73.4346 H         1 UNK         0.0793 
    117 H117      -79.9211   23.0747  -75.2940 H         1 UNK         0.3047 
    118 H118      -81.1750   23.8936  -78.3977 H         1 UNK         0.0822 
    119 H119      -82.4421   21.7600  -78.4490 H         1 UNK         0.0807 
    120 H120      -81.2930   21.0170  -77.3347 H         1 UNK         0.0807 
    121 H121      -80.7842   21.4829  -78.9518 H         1 UNK         0.0807 
    122 H122      -82.5699   22.8502  -76.1912 H         1 UNK         0.2946 
    123 H123      -83.3974   25.8230  -74.8018 H         1 UNK         0.1144 
    124 H124      -84.5128   23.6607  -75.4161 H         1 UNK         0.0793 
    125 H125      -84.5878   23.9510  -73.6906 H         1 UNK         0.0793 
    126 H126      -83.4418   22.7799  -74.3213 H         1 UNK         0.0793 
    127 H127      -81.4458   24.1433  -73.2651 H         1 UNK         0.2896 
@<TRIPOS>BOND
     1    1    2 1    
     2    1   67 1    
     3    1   68 1    
     4    1   69 1    
     5    2    3 2    
     6    2    4 am   BACKBONE|DICT|INTERRES
     7    4    5 1    
     8    4   70 1    
     9    5    6 1    
    10    5   65 1    
    11    5   71 1    
    12    6    7 1    
    13    6   72 1    
    14    6   73 1    
    15    7    8 1    
    16    8    9 1    
    17    8   74 1    
    18    8   75 1    
    19    9   10 ar   
    20    9   14 ar   
    21   10   11 ar   
    22   10   76 1    
    23   11   12 ar   
    24   11   48 1    
    25   12   13 ar   
    26   12   77 1    
    27   13   14 ar   
    28   13   15 1    
    29   14   78 1    
    30   15   16 1    
    31   15   79 1    
    32   15   80 1    
    33   16   17 1    
    34   17   18 1    
    35   17   81 1    
    36   17   82 1    
    37   18   19 1    
    38   18   22 1    
    39   18   83 1    
    40   19   20 am   BACKBONE|DICT|INTERRES
    41   19   21 2    
    42   20   84 1    
    43   20   85 1    
    44   22   23 am   BACKBONE|DICT|INTERRES
    45   22   86 1    
    46   23   24 2    
    47   23   25 1    
    48   25   26 1    
    49   25   27 1    
    50   25   87 1    
    51   26   88 1    
    52   26   89 1    
    53   26   90 1    
    54   27   28 am   BACKBONE|DICT|INTERRES
    55   27   91 1    
    56   28   29 2    
    57   28   30 1    
    58   30   31 1    
    59   30   32 1    
    60   30   92 1    
    61   31   93 1    
    62   31   94 1    
    63   31   95 1    
    64   32   33 am   BACKBONE|DICT|INTERRES
    65   32   96 1    
    66   33   34 2    
    67   33   35 1    
    68   35   36 1    
    69   35   37 1    
    70   35   97 1    
    71   36   98 1    
    72   36   99 1    
    73   36  100 1    
    74   37   38 am   BACKBONE|DICT|INTERRES
    75   37  101 1    
    76   38   39 2    
    77   38   40 1    
    78   40   41 1    
    79   40   42 1    
    80   40  102 1    
    81   41  103 1    
    82   41  104 1    
    83   41  105 1    
    84   42   43 am   BACKBONE|DICT|INTERRES
    85   42  106 1    
    86   43   44 2    
    87   43   45 1    
    88   45   46 1    
    89   45   49 1    
    90   45  107 1    
    91   46   47 1    
    92   46  108 1    
    93   46  109 1    
    94   47   48 1    
    95   48  110 1    
    96   48  111 1    
    97   49   50 am   BACKBONE|DICT|INTERRES
    98   49  112 1    
    99   50   51 2    
   100   50   52 1    
   101   52   53 1    
   102   52   54 1    
   103   52  113 1    
   104   53  114 1    
   105   53  115 1    
   106   53  116 1    
   107   54   55 am   BACKBONE|DICT|INTERRES
   108   54  117 1    
   109   55   56 2    
   110   55   57 1    
   111   57   58 1    
   112   57   59 1    
   113   57  118 1    
   114   58  119 1    
   115   58  120 1    
   116   58  121 1    
   117   59   60 am   BACKBONE|DICT|INTERRES
   118   59  122 1    
   119   60   61 2    
   120   60   62 1    
   121   62   63 1    
   122   62   64 1    
   123   62  123 1    
   124   63  124 1    
   125   63  125 1    
   126   63  126 1    
   127   64   65 am   BACKBONE|DICT|INTERRES
   128   64  127 1    
   129   65   66 2    
@<TRIPOS>SUBSTRUCTURE
     1 UNK         1 GROUP             0       ****    0 ROOT    
