@<TRIPOS>MOLECULE
3R135
127   129    1
SMALL
USER_CHARGES


@<TRIPOS>ATOM
      1 CA        -77.5018   30.1455  -76.5410 C.3       0 UNK        -0.1998 
      2 C         -78.8382   29.7899  -75.9032 C.2       0 UNK         0.4909 
      3 O         -79.8370   30.4596  -76.1680 O.2       0 UNK        -0.5240 
      4 N         -78.8483   28.7529  -75.0544 N.am      1 UNK        -0.4739 
      5 CA        -80.0060   28.2097  -74.3318 C.3       1 UNK         0.0864 
      6 C6        -80.7093   29.2708  -73.4355 C.3       11 UNK        -0.0881 
      7 S7        -81.2878   28.5753  -71.8516 S.3       11 UNK        -0.2682 
      8 C8        -79.8950   28.9897  -70.7525 C.3       11 UNK         0.0289 
      9 C9        -78.6472   28.1872  -71.0938 C.ar      11 UNK        -0.0687 
     10 C10       -78.5479   26.8513  -70.6932 C.ar      11 UNK        -0.0823 
     11 C11       -77.4043   26.1034  -70.9890 C.ar      11 UNK        -0.0830 
     12 C12       -76.3570   26.7026  -71.6917 C.ar      11 UNK        -0.1021 
     13 C13       -76.4517   28.0298  -72.1157 C.ar      11 UNK        -0.0753 
     14 C14       -77.5951   28.7731  -71.8071 C.ar      11 UNK        -0.0933 
     15 C15       -75.3138   28.6437  -72.9116 C.3       11 UNK         0.0166 
     16 S16       -74.0835   29.4102  -71.8112 S.3       11 UNK        -0.2615 
     17 C17       -74.3860   31.1908  -72.1031 C.3       11 UNK        -0.0865 
     18 CA        -73.3563   31.8304  -73.0749 C.3       10 UNK         0.0862 
     19 C         -71.9901   32.1150  -72.3796 C.2       10 UNK         0.5551 
     20 N         -70.8778   31.5295  -72.8095 N.am      10 UNK        -0.7319 
     21 O         -71.9395   32.8995  -71.4353 O.2       10 UNK        -0.5018 
     22 N         -73.2655   31.0653  -74.3261 N.am      10 UNK        -0.4509 
     23 C         -72.7954   31.5204  -75.4915 C.2       10 UNK         0.4899 
     24 O         -72.4989   32.6984  -75.6962 O.2       10 UNK        -0.4839 
     25 CA        -72.6303   30.4728  -76.6122 C.3       9 UNK         0.0222 
     26 CB        -71.5751   30.8885  -77.6584 C.3       9 UNK        -0.1966 
     27 N         -72.3620   29.1086  -76.1281 N.am      9 UNK        -0.4218 
     28 C         -71.3281   28.6995  -75.3704 C.2       9 UNK         0.5020 
     29 O         -70.4845   29.4671  -74.9049 O.2       9 UNK        -0.5274 
     30 CA        -71.2081   27.1937  -75.0497 C.3       8 UNK         0.0270 
     31 CB        -71.5195   26.9284  -73.5675 C.3       8 UNK        -0.1976 
     32 N         -72.0603   26.3368  -75.8789 N.am      8 UNK        -0.4313 
     33 C         -71.8678   26.1066  -77.1875 C.2       8 UNK         0.5041 
     34 O         -70.8732   26.4903  -77.8041 O.2       8 UNK        -0.5577 
     35 CA        -72.9771   25.3591  -77.9573 C.3       7 UNK         0.0284 
     36 CB        -72.5767   23.8924  -78.1838 C.3       7 UNK        -0.1958 
     37 N         -74.2971   25.3957  -77.3192 N.am      7 UNK        -0.4454 
     38 C         -74.9792   26.4977  -76.9720 C.2       7 UNK         0.5089 
     39 O         -74.6018   27.6436  -77.2154 O.2       7 UNK        -0.5125 
     40 CA        -76.2698   26.2980  -76.1586 C.3       6 UNK         0.0408 
     41 CB        -77.4744   26.3739  -77.1057 C.3       6 UNK        -0.1791 
     42 N         -76.3320   25.0454  -75.3933 N.am      6 UNK        -0.4762 
     43 C         -75.4100   24.5977  -74.5216 C.2       6 UNK         0.5007 
     44 O         -74.4098   25.2470  -74.2102 O.2       6 UNK        -0.5032 
     45 CA        -75.5687   23.1641  -73.9622 C.3       5 UNK         0.0783 
     46 C46       -75.8086   23.1406  -72.4311 C.3       11 UNK        -0.0857 
     47 S47       -77.5304   23.5005  -71.9284 S.3       11 UNK        -0.2512 
     48 C48       -77.2982   24.6545  -70.5394 C.3       11 UNK         0.0225 
     49 N         -76.5528   22.3495  -74.6829 N.am      5 UNK        -0.4615 
     50 C         -76.4618   21.9569  -75.9597 C.2       4 UNK         0.5053 
     51 O         -75.4751   22.1684  -76.6657 O.2       4 UNK        -0.5105 
     52 CA        -77.6913   21.2521  -76.5675 C.3       4 UNK         0.0263 
     53 CB        -77.4682   19.7317  -76.6020 C.3       4 UNK        -0.1981 
     54 N         -78.9745   21.5360  -75.9035 N.am      4 UNK        -0.4224 
     55 C         -79.5182   22.7509  -75.7382 C.2       3 UNK         0.4895 
     56 O         -78.9586   23.8003  -76.0630 O.2       3 UNK        -0.5091 
     57 CA        -80.9018   22.8049  -75.0776 C.3       3 UNK         0.0250 
     58 CB        -80.8293   22.4291  -73.5848 C.3       3 UNK        -0.1996 
     59 N         -81.4370   24.1566  -75.2226 N.am      3 UNK        -0.4254 
     60 C         -82.7218   24.5155  -75.1260 C.2       2 UNK         0.5004 
     61 O         -83.6324   23.7133  -74.9101 O.2       2 UNK        -0.5226 
     62 CA        -83.0396   26.0177  -75.2754 C.3       2 UNK         0.0269 
     63 CB        -84.4174   26.3869  -74.6931 C.3       2 UNK        -0.1926 
     64 N         -82.0210   26.8499  -74.6268 N.am      2 UNK        -0.4687 
     65 C         -80.9891   27.4375  -75.2437 C.2       1 UNK         0.5165 
     66 O         -80.7923   27.3433  -76.4569 O.2       1 UNK        -0.5079 
     67 H67       -77.5593   30.0250  -77.6225 H         1 UNK         0.0900 
     68 H68       -77.2490   31.1838  -76.3276 H         1 UNK         0.0900 
     69 H69       -76.6887   29.5198  -76.1743 H         1 UNK         0.0900 
     70 H70       -77.9907   28.2455  -74.8990 H         1 UNK         0.2959 
     71 H71       -79.5686   27.4474  -73.6848 H         1 UNK         0.1079 
     72 H72       -81.5514   29.7346  -73.9533 H         1 UNK         0.0837 
     73 H73       -80.0301   30.0941  -73.2098 H         1 UNK         0.0837 
     74 H74       -80.1872   28.7820  -69.7221 H         1 UNK         0.0685 
     75 H75       -79.6943   30.0612  -70.7997 H         1 UNK         0.0685 
     76 H76       -79.3649   26.3964  -70.1497 H         1 UNK         0.1434 
     77 H77       -75.4654   26.1351  -71.9160 H         1 UNK         0.1329 
     78 H78       -77.6676   29.8036  -72.1262 H         1 UNK         0.1335 
     79 H79       -75.7009   29.3640  -73.6334 H         1 UNK         0.0680 
     80 H80       -74.8209   27.8711  -73.5026 H         1 UNK         0.0680 
     81 H81       -74.3847   31.7057  -71.1404 H         1 UNK         0.1032 
     82 H82       -75.3949   31.3322  -72.4927 H         1 UNK         0.1032 
     83 H83       -73.7476   32.8152  -73.3377 H         1 UNK         0.0461 
     84 H84       -70.0068   31.7347  -72.3473 H         1 UNK         0.3453 
     85 H85       -70.8909   30.8752  -73.5853 H         1 UNK         0.3453 
     86 H86       -73.4430   30.0766  -74.2381 H         1 UNK         0.2984 
     87 H87       -73.5947   30.4241  -77.1199 H         1 UNK         0.0554 
     88 H88       -71.8405   31.8348  -78.1312 H         1 UNK         0.0847 
     89 H89       -71.4892   30.1455  -78.4513 H         1 UNK         0.0847 
     90 H90       -70.5894   31.0146  -77.2090 H         1 UNK         0.0847 
     91 H91       -73.0279   28.4111  -76.4531 H         1 UNK         0.3141 
     92 H92       -70.1687   26.9123  -75.2313 H         1 UNK         0.0743 
     93 H93       -70.8883   27.5359  -72.9173 H         1 UNK         0.0784 
     94 H94       -72.5555   27.1611  -73.3237 H         1 UNK         0.0784 
     95 H95       -71.3435   25.8849  -73.3062 H         1 UNK         0.0784 
     96 H96       -72.8929   25.9616  -75.4339 H         1 UNK         0.3213 
     97 H97       -73.0743   25.8453  -78.9302 H         1 UNK         0.0855 
     98 H98       -72.4978   23.3466  -77.2426 H         1 UNK         0.0814 
     99 H99       -71.6098   23.8227  -78.6845 H         1 UNK         0.0814 
    100 H100      -73.3026   23.3739  -78.8107 H         1 UNK         0.0814 
    101 H101      -74.6999   24.5009  -77.0715 H         1 UNK         0.3105 
    102 H102      -76.3336   27.1164  -75.4408 H         1 UNK         0.0547 
    103 H103      -78.4112   26.3261  -76.5556 H         1 UNK         0.0837 
    104 H104      -77.4736   25.5539  -77.8249 H         1 UNK         0.0837 
    105 H105      -77.4792   27.3053  -77.6730 H         1 UNK         0.0837 
    106 H106      -77.1386   24.4557  -75.5808 H         1 UNK         0.3020 
    107 H107      -74.5975   22.6941  -74.1345 H         1 UNK         0.1245 
    108 H108      -75.1118   23.8086  -71.9223 H         1 UNK         0.0781 
    109 H109      -75.5719   22.1450  -72.0526 H         1 UNK         0.0781 
    110 H110      -76.3389   24.4812  -70.0498 H         1 UNK         0.0836 
    111 H111      -78.0578   24.4387  -69.7865 H         1 UNK         0.0836 
    112 H112      -77.4051   22.1529  -74.1784 H         1 UNK         0.3022 
    113 H113      -77.7784   21.6067  -77.5966 H         1 UNK         0.0747 
    114 H114      -78.2716   19.2231  -77.1353 H         1 UNK         0.0793 
    115 H115      -76.5370   19.4842  -77.1141 H         1 UNK         0.0793 
    116 H116      -77.4096   19.3097  -75.5979 H         1 UNK         0.0793 
    117 H117      -79.4998   20.7311  -75.5926 H         1 UNK         0.3047 
    118 H118      -81.5531   22.1039  -75.6039 H         1 UNK         0.0822 
    119 H119      -81.8237   22.3800  -73.1408 H         1 UNK         0.0807 
    120 H120      -80.2521   23.1595  -73.0179 H         1 UNK         0.0807 
    121 H121      -80.3652   21.4538  -73.4351 H         1 UNK         0.0807 
    122 H122      -80.7416   24.8495  -75.4730 H         1 UNK         0.2946 
    123 H123      -83.0660   26.2266  -76.3475 H         1 UNK         0.1144 
    124 H124      -84.4807   26.1554  -73.6291 H         1 UNK         0.0793 
    125 H125      -85.2166   25.8403  -75.1956 H         1 UNK         0.0793 
    126 H126      -84.6283   27.4491  -74.8182 H         1 UNK         0.0793 
    127 H127      -82.1012   26.9570  -73.6235 H         1 UNK         0.2896 
@<TRIPOS>BOND
     1    1    2 1    
     2    1   67 1    
     3    1   68 1    
     4    1   69 1    
     5    2    3 2    
     6    2    4 am   BACKBONE|DICT|INTERRES
     7    4    5 1    
     8    4   70 1    
     9    5    6 1    
    10    5   65 1    
    11    5   71 1    
    12    6    7 1    
    13    6   72 1    
    14    6   73 1    
    15    7    8 1    
    16    8    9 1    
    17    8   74 1    
    18    8   75 1    
    19    9   10 ar   
    20    9   14 ar   
    21   10   11 ar   
    22   10   76 1    
    23   11   12 ar   
    24   11   48 1    
    25   12   13 ar   
    26   12   77 1    
    27   13   14 ar   
    28   13   15 1    
    29   14   78 1    
    30   15   16 1    
    31   15   79 1    
    32   15   80 1    
    33   16   17 1    
    34   17   18 1    
    35   17   81 1    
    36   17   82 1    
    37   18   19 1    
    38   18   22 1    
    39   18   83 1    
    40   19   20 am   BACKBONE|DICT|INTERRES
    41   19   21 2    
    42   20   84 1    
    43   20   85 1    
    44   22   23 am   BACKBONE|DICT|INTERRES
    45   22   86 1    
    46   23   24 2    
    47   23   25 1    
    48   25   26 1    
    49   25   27 1    
    50   25   87 1    
    51   26   88 1    
    52   26   89 1    
    53   26   90 1    
    54   27   28 am   BACKBONE|DICT|INTERRES
    55   27   91 1    
    56   28   29 2    
    57   28   30 1    
    58   30   31 1    
    59   30   32 1    
    60   30   92 1    
    61   31   93 1    
    62   31   94 1    
    63   31   95 1    
    64   32   33 am   BACKBONE|DICT|INTERRES
    65   32   96 1    
    66   33   34 2    
    67   33   35 1    
    68   35   36 1    
    69   35   37 1    
    70   35   97 1    
    71   36   98 1    
    72   36   99 1    
    73   36  100 1    
    74   37   38 am   BACKBONE|DICT|INTERRES
    75   37  101 1    
    76   38   39 2    
    77   38   40 1    
    78   40   41 1    
    79   40   42 1    
    80   40  102 1    
    81   41  103 1    
    82   41  104 1    
    83   41  105 1    
    84   42   43 am   BACKBONE|DICT|INTERRES
    85   42  106 1    
    86   43   44 2    
    87   43   45 1    
    88   45   46 1    
    89   45   49 1    
    90   45  107 1    
    91   46   47 1    
    92   46  108 1    
    93   46  109 1    
    94   47   48 1    
    95   48  110 1    
    96   48  111 1    
    97   49   50 am   BACKBONE|DICT|INTERRES
    98   49  112 1    
    99   50   51 2    
   100   50   52 1    
   101   52   53 1    
   102   52   54 1    
   103   52  113 1    
   104   53  114 1    
   105   53  115 1    
   106   53  116 1    
   107   54   55 am   BACKBONE|DICT|INTERRES
   108   54  117 1    
   109   55   56 2    
   110   55   57 1    
   111   57   58 1    
   112   57   59 1    
   113   57  118 1    
   114   58  119 1    
   115   58  120 1    
   116   58  121 1    
   117   59   60 am   BACKBONE|DICT|INTERRES
   118   59  122 1    
   119   60   61 2    
   120   60   62 1    
   121   62   63 1    
   122   62   64 1    
   123   62  123 1    
   124   63  124 1    
   125   63  125 1    
   126   63  126 1    
   127   64   65 am   BACKBONE|DICT|INTERRES
   128   64  127 1    
   129   65   66 2    
@<TRIPOS>SUBSTRUCTURE
     1 UNK         1 GROUP             0       ****    0 ROOT    
