@<TRIPOS>MOLECULE
3R135
127   129    1
SMALL
USER_CHARGES


@<TRIPOS>ATOM
      1 CA        -82.7508   26.5804  -68.9698 C.3       0 UNK        -0.1998 
      2 C         -83.1339   26.6299  -70.4412 C.2       0 UNK         0.4909 
      3 O         -84.1339   26.0290  -70.8351 O.2       0 UNK        -0.5240 
      4 N         -82.3459   27.3442  -71.2551 N.am      1 UNK        -0.4739 
      5 CA        -82.5508   27.4967  -72.7027 C.3       1 UNK         0.0864 
      6 C6        -81.7121   28.6595  -73.2833 C.3       11 UNK        -0.0881 
      7 S7        -82.0697   30.2783  -72.5066 S.3       11 UNK        -0.2682 
      8 C8        -80.7554   30.4619  -71.2445 C.3       11 UNK         0.0289 
      9 C9        -79.3608   30.1497  -71.7740 C.ar      11 UNK        -0.0687 
     10 C10       -78.8846   30.7884  -72.9233 C.ar      11 UNK        -0.0823 
     11 C11       -77.6505   30.4322  -73.4706 C.ar      11 UNK        -0.0830 
     12 C12       -76.8689   29.4647  -72.8350 C.ar      11 UNK        -0.1021 
     13 C13       -77.3185   28.8385  -71.6707 C.ar      11 UNK        -0.0753 
     14 C14       -78.5662   29.1851  -71.1427 C.ar      11 UNK        -0.0933 
     15 C15       -76.4675   27.7618  -71.0153 C.3       11 UNK         0.0166 
     16 S16       -75.1294   28.4909  -70.0187 S.3       11 UNK        -0.2615 
     17 C17       -73.6627   27.6224  -70.6779 C.3       11 UNK        -0.0865 
     18 CA        -73.0552   28.3266  -71.9282 C.3       10 UNK         0.0862 
     19 C         -72.0631   29.4845  -71.5875 C.2       10 UNK         0.5551 
     20 N         -71.0616   29.7552  -72.4168 N.am      10 UNK        -0.7319 
     21 O         -72.2101   30.1660  -70.5763 O.2       10 UNK        -0.5018 
     22 N         -72.5611   27.3629  -72.9261 N.am      10 UNK        -0.4509 
     23 C         -71.5171   26.5341  -72.7736 C.2       10 UNK         0.4899 
     24 O         -70.8804   26.4158  -71.7269 O.2       10 UNK        -0.4839 
     25 CA        -71.0977   25.7041  -73.9995 C.3       9 UNK         0.0222 
     26 CB        -71.5967   24.2560  -73.8730 C.3       9 UNK        -0.1966 
     27 N         -71.5947   26.2750  -75.2522 N.am      9 UNK        -0.4218 
     28 C         -71.0337   27.2900  -75.9223 C.2       9 UNK         0.5020 
     29 O         -69.9844   27.8359  -75.5765 O.2       9 UNK        -0.5274 
     30 CA        -71.7984   27.7988  -77.1631 C.3       8 UNK         0.0270 
     31 CB        -70.8866   28.5148  -78.1820 C.3       8 UNK        -0.1976 
     32 N         -72.6108   26.7610  -77.8133 N.am      8 UNK        -0.4313 
     33 C         -72.1836   25.6301  -78.3979 C.2       8 UNK         0.5041 
     34 O         -70.9965   25.3270  -78.5231 O.2       8 UNK        -0.5577 
     35 CA        -73.2548   24.6435  -78.9030 C.3       7 UNK         0.0284 
     36 CB        -73.2822   23.3883  -78.0150 C.3       7 UNK        -0.1958 
     37 N         -74.6046   25.2113  -78.9572 N.am      7 UNK        -0.4454 
     38 C         -75.0332   26.0831  -79.8793 C.2       7 UNK         0.5089 
     39 O         -74.3476   26.4803  -80.8215 O.2       7 UNK        -0.5125 
     40 CA        -76.4598   26.6275  -79.6961 C.3       6 UNK         0.0408 
     41 CB        -77.4919   25.6633  -80.3026 C.3       6 UNK        -0.1791 
     42 N         -76.7934   26.8850  -78.2916 N.am      6 UNK        -0.4762 
     43 C         -76.2372   27.8439  -77.5362 C.2       6 UNK         0.5007 
     44 O         -75.3577   28.6062  -77.9373 O.2       6 UNK        -0.5032 
     45 CA        -76.7088   27.9293  -76.0713 C.3       5 UNK         0.0783 
     46 C46       -78.1076   28.5821  -75.9459 C.3       11 UNK        -0.0857 
     47 S47       -78.1093   30.3912  -76.2170 S.3       11 UNK        -0.2512 
     48 C48       -77.1874   31.0467  -74.7819 C.3       11 UNK         0.0225 
     49 N         -76.6698   26.6168  -75.4222 N.am      5 UNK        -0.4615 
     50 C         -75.5404   25.9534  -75.1332 C.2       4 UNK         0.5053 
     51 O         -74.4162   26.4353  -75.2694 O.2       4 UNK        -0.5105 
     52 CA        -75.6651   24.5002  -74.6364 C.3       4 UNK         0.0263 
     53 CB        -75.5970   24.4539  -73.1021 C.3       4 UNK        -0.1981 
     54 N         -76.8828   23.8212  -75.0835 N.am      4 UNK        -0.4224 
     55 C         -77.2698   23.6601  -76.3573 C.2       3 UNK         0.4895 
     56 O         -76.5593   23.9388  -77.3226 O.2       3 UNK        -0.5091 
     57 CA        -78.7100   23.1703  -76.6069 C.3       3 UNK         0.0250 
     58 CB        -78.6970   21.7272  -77.1353 C.3       3 UNK        -0.1996 
     59 N         -79.6089   23.2522  -75.4454 N.am      3 UNK        -0.4254 
     60 C         -79.9179   24.3612  -74.7552 C.2       2 UNK         0.5004 
     61 O         -79.4561   25.4783  -75.0095 O.2       2 UNK        -0.5226 
     62 CA        -80.8230   24.1460  -73.5283 C.3       2 UNK         0.0269 
     63 CB        -80.0703   23.3711  -72.4309 C.3       2 UNK        -0.1926 
     64 N         -81.2976   25.4022  -72.9498 N.am      2 UNK        -0.4687 
     65 C         -82.2427   26.1944  -73.4736 C.2       1 UNK         0.5165 
     66 O         -82.8650   25.9311  -74.5040 O.2       1 UNK        -0.5079 
     67 H67       -81.8539   27.1633  -68.7610 H         1 UNK         0.0900 
     68 H68       -82.5648   25.5508  -68.6654 H         1 UNK         0.0900 
     69 H69       -83.5613   26.9757  -68.3581 H         1 UNK         0.0900 
     70 H70       -81.5492   27.8319  -70.8747 H         1 UNK         0.2959 
     71 H71       -83.6065   27.7234  -72.8687 H         1 UNK         0.1079 
     72 H72       -80.6477   28.4294  -73.2262 H         1 UNK         0.0837 
     73 H73       -81.9228   28.7702  -74.3490 H         1 UNK         0.0837 
     74 H74       -80.7690   31.4870  -70.8721 H         1 UNK         0.0685 
     75 H75       -80.9974   29.8264  -70.3919 H         1 UNK         0.0685 
     76 H76       -79.5007   31.5224  -73.4248 H         1 UNK         0.1434 
     77 H77       -75.9189   29.1789  -73.2600 H         1 UNK         0.1329 
     78 H78       -78.9243   28.6884  -70.2515 H         1 UNK         0.1335 
     79 H79       -77.0775   27.1187  -70.3793 H         1 UNK         0.0680 
     80 H80       -76.0552   27.1199  -71.7939 H         1 UNK         0.0680 
     81 H81       -73.9530   26.5972  -70.9111 H         1 UNK         0.1032 
     82 H82       -72.9173   27.5297  -69.8858 H         1 UNK         0.1032 
     83 H83       -73.8674   28.8287  -72.4504 H         1 UNK         0.0461 
     84 H84       -70.9184   29.2036  -73.2483 H         1 UNK         0.3453 
     85 H85       -70.4296   30.5085  -72.1961 H         1 UNK         0.3453 
     86 H86       -73.0421   27.3622  -73.8169 H         1 UNK         0.2984 
     87 H87       -70.0062   25.6859  -74.0301 H         1 UNK         0.0554 
     88 H88       -72.6838   24.2034  -73.8327 H         1 UNK         0.0847 
     89 H89       -71.2145   23.7897  -72.9638 H         1 UNK         0.0847 
     90 H90       -71.2627   23.6470  -74.7134 H         1 UNK         0.0847 
     91 H91       -72.5175   25.9781  -75.5525 H         1 UNK         0.3141 
     92 H92       -72.5101   28.5363  -76.7888 H         1 UNK         0.0743 
     93 H93       -70.0975   27.8592  -78.5511 H         1 UNK         0.0784 
     94 H94       -71.4562   28.8717  -79.0402 H         1 UNK         0.0784 
     95 H95       -70.4027   29.3826  -77.7322 H         1 UNK         0.0784 
     96 H96       -73.6108   26.9068  -77.7621 H         1 UNK         0.3213 
     97 H97       -72.9691   24.3423  -79.9131 H         1 UNK         0.0855 
     98 H98       -73.5342   23.6318  -76.9833 H         1 UNK         0.0814 
     99 H99       -72.3095   22.8946  -78.0045 H         1 UNK         0.0814 
    100 H100      -74.0106   22.6614  -78.3752 H         1 UNK         0.0814 
    101 H101      -75.2733   24.8783  -78.2640 H         1 UNK         0.3105 
    102 H102      -76.5251   27.5754  -80.2345 H         1 UNK         0.0547 
    103 H103      -77.2795   25.4797  -81.3567 H         1 UNK         0.0837 
    104 H104      -77.4912   24.6961  -79.7985 H         1 UNK         0.0837 
    105 H105      -78.5005   26.0722  -80.2438 H         1 UNK         0.0837 
    106 H106      -77.4601   26.2593  -77.8628 H         1 UNK         0.3020 
    107 H107      -75.9857   28.5574  -75.5497 H         1 UNK         0.1245 
    108 H108      -78.5301   28.3855  -74.9595 H         1 UNK         0.0781 
    109 H109      -78.8138   28.1277  -76.6433 H         1 UNK         0.0781 
    110 H110      -77.3190   32.1290  -74.7423 H         1 UNK         0.0836 
    111 H111      -76.1197   30.8806  -74.9321 H         1 UNK         0.0836 
    112 H112      -77.5653   26.1653  -75.2595 H         1 UNK         0.3022 
    113 H113      -74.8154   23.9461  -75.0365 H         1 UNK         0.0747 
    114 H114      -75.5193   23.4282  -72.7410 H         1 UNK         0.0793 
    115 H115      -74.7260   24.9933  -72.7278 H         1 UNK         0.0793 
    116 H116      -76.4803   24.9024  -72.6463 H         1 UNK         0.0793 
    117 H117      -77.5372   23.5548  -74.3638 H         1 UNK         0.3047 
    118 H118      -79.1279   23.8142  -77.3835 H         1 UNK         0.0822 
    119 H119      -79.6958   21.3999  -77.4246 H         1 UNK         0.0807 
    120 H120      -78.3150   21.0278  -76.3905 H         1 UNK         0.0807 
    121 H121      -78.0629   21.6396  -78.0191 H         1 UNK         0.0807 
    122 H122      -80.0222   22.3785  -75.1508 H         1 UNK         0.2946 
    123 H123      -81.6916   23.5640  -73.8458 H         1 UNK         0.1144 
    124 H124      -79.7496   22.3890  -72.7804 H         1 UNK         0.0793 
    125 H125      -80.7047   23.2041  -71.5599 H         1 UNK         0.0793 
    126 H126      -79.1800   23.9059  -72.0966 H         1 UNK         0.0793 
    127 H127      -80.8335   25.7168  -72.1112 H         1 UNK         0.2896 
@<TRIPOS>BOND
     1    1    2 1    
     2    1   67 1    
     3    1   68 1    
     4    1   69 1    
     5    2    3 2    
     6    2    4 am   BACKBONE|DICT|INTERRES
     7    4    5 1    
     8    4   70 1    
     9    5    6 1    
    10    5   65 1    
    11    5   71 1    
    12    6    7 1    
    13    6   72 1    
    14    6   73 1    
    15    7    8 1    
    16    8    9 1    
    17    8   74 1    
    18    8   75 1    
    19    9   10 ar   
    20    9   14 ar   
    21   10   11 ar   
    22   10   76 1    
    23   11   12 ar   
    24   11   48 1    
    25   12   13 ar   
    26   12   77 1    
    27   13   14 ar   
    28   13   15 1    
    29   14   78 1    
    30   15   16 1    
    31   15   79 1    
    32   15   80 1    
    33   16   17 1    
    34   17   18 1    
    35   17   81 1    
    36   17   82 1    
    37   18   19 1    
    38   18   22 1    
    39   18   83 1    
    40   19   20 am   BACKBONE|DICT|INTERRES
    41   19   21 2    
    42   20   84 1    
    43   20   85 1    
    44   22   23 am   BACKBONE|DICT|INTERRES
    45   22   86 1    
    46   23   24 2    
    47   23   25 1    
    48   25   26 1    
    49   25   27 1    
    50   25   87 1    
    51   26   88 1    
    52   26   89 1    
    53   26   90 1    
    54   27   28 am   BACKBONE|DICT|INTERRES
    55   27   91 1    
    56   28   29 2    
    57   28   30 1    
    58   30   31 1    
    59   30   32 1    
    60   30   92 1    
    61   31   93 1    
    62   31   94 1    
    63   31   95 1    
    64   32   33 am   BACKBONE|DICT|INTERRES
    65   32   96 1    
    66   33   34 2    
    67   33   35 1    
    68   35   36 1    
    69   35   37 1    
    70   35   97 1    
    71   36   98 1    
    72   36   99 1    
    73   36  100 1    
    74   37   38 am   BACKBONE|DICT|INTERRES
    75   37  101 1    
    76   38   39 2    
    77   38   40 1    
    78   40   41 1    
    79   40   42 1    
    80   40  102 1    
    81   41  103 1    
    82   41  104 1    
    83   41  105 1    
    84   42   43 am   BACKBONE|DICT|INTERRES
    85   42  106 1    
    86   43   44 2    
    87   43   45 1    
    88   45   46 1    
    89   45   49 1    
    90   45  107 1    
    91   46   47 1    
    92   46  108 1    
    93   46  109 1    
    94   47   48 1    
    95   48  110 1    
    96   48  111 1    
    97   49   50 am   BACKBONE|DICT|INTERRES
    98   49  112 1    
    99   50   51 2    
   100   50   52 1    
   101   52   53 1    
   102   52   54 1    
   103   52  113 1    
   104   53  114 1    
   105   53  115 1    
   106   53  116 1    
   107   54   55 am   BACKBONE|DICT|INTERRES
   108   54  117 1    
   109   55   56 2    
   110   55   57 1    
   111   57   58 1    
   112   57   59 1    
   113   57  118 1    
   114   58  119 1    
   115   58  120 1    
   116   58  121 1    
   117   59   60 am   BACKBONE|DICT|INTERRES
   118   59  122 1    
   119   60   61 2    
   120   60   62 1    
   121   62   63 1    
   122   62   64 1    
   123   62  123 1    
   124   63  124 1    
   125   63  125 1    
   126   63  126 1    
   127   64   65 am   BACKBONE|DICT|INTERRES
   128   64  127 1    
   129   65   66 2    
@<TRIPOS>SUBSTRUCTURE
     1 UNK         1 GROUP             0       ****    0 ROOT    
