@<TRIPOS>MOLECULE
3R135
127   129    1
SMALL
USER_CHARGES


@<TRIPOS>ATOM
      1 CA        -83.7556   30.3996  -74.7006 C.3       0 UNK        -0.1998 
      2 C         -83.2102   29.2502  -75.5346 C.2       0 UNK         0.4909 
      3 O         -83.8548   28.8317  -76.4966 O.2       0 UNK        -0.5240 
      4 N         -82.0257   28.7388  -75.1739 N.am      1 UNK        -0.4739 
      5 CA        -81.3478   27.6308  -75.8613 C.3       1 UNK         0.0864 
      6 C6        -79.8739   27.4866  -75.4108 C.3       11 UNK        -0.0881 
      7 S7        -78.8557   28.9446  -75.8089 S.3       11 UNK        -0.2682 
      8 C8        -78.5264   29.6561  -74.1559 C.3       11 UNK         0.0289 
      9 C9        -77.4896   28.9308  -73.2900 C.ar      11 UNK        -0.0687 
     10 C10       -77.0393   27.6307  -73.5584 C.ar      11 UNK        -0.0823 
     11 C11       -76.1125   27.0066  -72.7195 C.ar      11 UNK        -0.0830 
     12 C12       -75.6367   27.6811  -71.5955 C.ar      11 UNK        -0.1021 
     13 C13       -76.0654   28.9808  -71.3133 C.ar      11 UNK        -0.0753 
     14 C14       -76.9912   29.5955  -72.1629 C.ar      11 UNK        -0.0933 
     15 C15       -75.5497   29.7078  -70.0768 C.3       11 UNK         0.0166 
     16 S16       -73.7294   29.7116  -69.9711 S.3       11 UNK        -0.2615 
     17 C17       -73.2703   30.9967  -71.1854 C.3       11 UNK        -0.0865 
     18 CA        -73.2049   30.5094  -72.6630 C.3       10 UNK         0.0862 
     19 C         -72.7707   31.6664  -73.6059 C.2       10 UNK         0.5551 
     20 N         -73.6940   32.5598  -73.9365 N.am      10 UNK        -0.7319 
     21 O         -71.6172   31.7949  -74.0084 O.2       10 UNK        -0.5018 
     22 N         -72.4486   29.2616  -72.8618 N.am      10 UNK        -0.4509 
     23 C         -71.1784   28.9999  -72.5223 C.2       10 UNK         0.4899 
     24 O         -70.4303   29.7798  -71.9324 O.2       10 UNK        -0.4839 
     25 CA        -70.6589   27.6034  -72.9031 C.3       9 UNK         0.0222 
     26 CB        -71.1186   26.5585  -71.8719 C.3       9 UNK        -0.1966 
     27 N         -71.1111   27.2098  -74.2402 N.am      9 UNK        -0.4218 
     28 C         -70.5122   27.5821  -75.3814 C.2       9 UNK         0.5020 
     29 O         -69.4465   28.1975  -75.4323 O.2       9 UNK        -0.5274 
     30 CA        -71.2398   27.2218  -76.6895 C.3       8 UNK         0.0270 
     31 CB        -71.0099   25.7465  -77.0535 C.3       8 UNK        -0.1976 
     32 N         -72.6768   27.5074  -76.6152 N.am      8 UNK        -0.4313 
     33 C         -73.1873   28.7462  -76.5377 C.2       8 UNK         0.5041 
     34 O         -72.5067   29.7625  -76.6776 O.2       8 UNK        -0.5577 
     35 CA        -74.6846   28.8846  -76.2005 C.3       7 UNK         0.0284 
     36 CB        -75.2961   30.2039  -76.7200 C.3       7 UNK        -0.1958 
     37 N         -75.4933   27.7207  -76.5784 N.am      7 UNK        -0.4454 
     38 C         -75.7968   27.2924  -77.8115 C.2       7 UNK         0.5089 
     39 O         -75.4249   27.8438  -78.8484 O.2       7 UNK        -0.5125 
     40 CA        -76.6516   26.0073  -77.8741 C.3       6 UNK         0.0408 
     41 CB        -76.7252   25.4055  -79.2927 C.3       6 UNK        -0.1791 
     42 N         -76.2333   24.9834  -76.9041 N.am      6 UNK        -0.4762 
     43 C         -75.0097   24.4328  -76.7991 C.2       6 UNK         0.5007 
     44 O         -74.0566   24.7491  -77.5095 O.2       6 UNK        -0.5032 
     45 CA        -74.7874   23.3798  -75.6874 C.3       5 UNK         0.0783 
     46 C46       -73.9384   23.8990  -74.4857 C.3       11 UNK        -0.0857 
     47 S47       -74.1201   25.6613  -74.0283 S.3       11 UNK        -0.2512 
     48 C48       -75.6267   25.6018  -73.0243 C.3       11 UNK         0.0225 
     49 N         -76.0315   22.7358  -75.2448 N.am      5 UNK        -0.4615 
     50 C         -76.7657   21.9113  -76.0056 C.2       4 UNK         0.5053 
     51 O         -76.4480   21.5860  -77.1500 O.2       4 UNK        -0.5105 
     52 CA        -78.0652   21.3359  -75.4118 C.3       4 UNK         0.0263 
     53 CB        -77.8907   19.8388  -75.1044 C.3       4 UNK        -0.1981 
     54 N         -78.5897   22.0032  -74.2139 N.am      4 UNK        -0.4224 
     55 C         -79.0113   23.2722  -74.1384 C.2       3 UNK         0.4895 
     56 O         -78.8258   24.1194  -75.0157 O.2       3 UNK        -0.5091 
     57 CA        -79.7472   23.6614  -72.8456 C.3       3 UNK         0.0250 
     58 CB        -78.8604   24.5286  -71.9396 C.3       3 UNK        -0.1996 
     59 N         -80.9742   24.3918  -73.1554 N.am      3 UNK        -0.4254 
     60 C         -82.1016   23.8394  -73.6278 C.2       2 UNK         0.5004 
     61 O         -82.2719   22.6260  -73.7520 O.2       2 UNK        -0.5226 
     62 CA        -83.2267   24.8088  -74.0394 C.3       2 UNK         0.0269 
     63 CB        -84.2010   25.0372  -72.8726 C.3       2 UNK        -0.1926 
     64 N         -82.7047   26.1005  -74.4969 N.am      2 UNK        -0.4687 
     65 C         -82.0627   26.2795  -75.6616 C.2       1 UNK         0.5165 
     66 O         -81.9886   25.4183  -76.5389 O.2       1 UNK        -0.5079 
     67 H67       -83.0808   30.6718  -73.8892 H         1 UNK         0.0900 
     68 H68       -84.7160   30.1245  -74.2654 H         1 UNK         0.0900 
     69 H69       -83.9044   31.2791  -75.3266 H         1 UNK         0.0900 
     70 H70       -81.5300   29.1407  -74.3920 H         1 UNK         0.2959 
     71 H71       -81.3608   27.8419  -76.9332 H         1 UNK         0.1079 
     72 H72       -79.4093   26.6315  -75.9058 H         1 UNK         0.0837 
     73 H73       -79.8193   27.2785  -74.3407 H         1 UNK         0.0837 
     74 H74       -78.1895   30.6822  -74.3106 H         1 UNK         0.0685 
     75 H75       -79.4636   29.7237  -73.6028 H         1 UNK         0.0685 
     76 H76       -77.4086   27.0862  -74.4132 H         1 UNK         0.1434 
     77 H77       -74.9234   27.1976  -70.9419 H         1 UNK         0.1329 
     78 H78       -77.3355   30.5963  -71.9403 H         1 UNK         0.1335 
     79 H79       -75.9173   30.7343  -70.0381 H         1 UNK         0.0680 
     80 H80       -75.9467   29.2061  -69.1935 H         1 UNK         0.0680 
     81 H81       -72.3015   31.3976  -70.8822 H         1 UNK         0.1032 
     82 H82       -73.9712   31.8278  -71.0908 H         1 UNK         0.1032 
     83 H83       -74.2196   30.2484  -72.9631 H         1 UNK         0.0461 
     84 H84       -73.4340   33.3282  -74.5347 H         1 UNK         0.3453 
     85 H85       -74.6424   32.4840  -73.6050 H         1 UNK         0.3453 
     86 H86       -72.9633   28.5289  -73.3228 H         1 UNK         0.2984 
     87 H87       -69.5671   27.6304  -72.8892 H         1 UNK         0.0554 
     88 H88       -70.7455   25.5645  -72.1189 H         1 UNK         0.0847 
     89 H89       -72.2055   26.5017  -71.8019 H         1 UNK         0.0847 
     90 H90       -70.7452   26.8070  -70.8776 H         1 UNK         0.0847 
     91 H91       -71.9707   26.6800  -74.2961 H         1 UNK         0.3141 
     92 H92       -70.8142   27.8349  -77.4869 H         1 UNK         0.0743 
     93 H93       -71.4475   25.0718  -76.3174 H         1 UNK         0.0784 
     94 H94       -71.4435   25.5078  -78.0249 H         1 UNK         0.0784 
     95 H95       -69.9444   25.5202  -77.1118 H         1 UNK         0.0784 
     96 H96       -73.3028   26.7126  -76.5765 H         1 UNK         0.3213 
     97 H97       -74.7313   28.9250  -75.1115 H         1 UNK         0.0855 
     98 H98       -74.7707   31.0670  -76.3099 H         1 UNK         0.0814 
     99 H99       -76.3406   30.3018  -76.4298 H         1 UNK         0.0814 
    100 H100      -75.2392   30.2790  -77.8059 H         1 UNK         0.0814 
    101 H101      -75.8258   27.1611  -75.8070 H         1 UNK         0.3105 
    102 H102      -77.6628   26.3022  -77.5916 H         1 UNK         0.0547 
    103 H103      -77.1505   26.1193  -79.9991 H         1 UNK         0.0837 
    104 H104      -75.7389   25.1275  -79.6657 H         1 UNK         0.0837 
    105 H105      -77.3545   24.5158  -79.3137 H         1 UNK         0.0837 
    106 H106      -76.9564   24.6512  -76.2756 H         1 UNK         0.3020 
    107 H107      -74.1989   22.5902  -76.1618 H         1 UNK         0.1245 
    108 H108      -72.8836   23.7650  -74.7303 H         1 UNK         0.0781 
    109 H109      -74.0948   23.2799  -73.6006 H         1 UNK         0.0781 
    110 H110      -75.4323   25.0546  -72.1004 H         1 UNK         0.0836 
    111 H111      -76.3993   25.0509  -73.5600 H         1 UNK         0.0836 
    112 H112      -76.3519   22.9391  -74.3109 H         1 UNK         0.3022 
    113 H113      -78.8271   21.4338  -76.1881 H         1 UNK         0.0747 
    114 H114      -78.8330   19.3818  -74.8012 H         1 UNK         0.0793 
    115 H115      -77.5408   19.2945  -75.9830 H         1 UNK         0.0793 
    116 H116      -77.1636   19.6730  -74.3084 H         1 UNK         0.0793 
    117 H117      -78.7606   21.4010  -73.4210 H         1 UNK         0.3047 
    118 H118      -80.0148   22.7554  -72.2972 H         1 UNK         0.0822 
    119 H119      -79.3576   24.7477  -70.9944 H         1 UNK         0.0807 
    120 H120      -78.6121   25.4797  -72.4101 H         1 UNK         0.0807 
    121 H121      -77.9257   24.0207  -71.6999 H         1 UNK         0.0807 
    122 H122      -80.9236   25.3974  -73.1093 H         1 UNK         0.2946 
    123 H123      -83.7759   24.3443  -74.8619 H         1 UNK         0.1144 
    124 H124      -84.6231   24.0921  -72.5277 H         1 UNK         0.0793 
    125 H125      -85.0350   25.6727  -73.1712 H         1 UNK         0.0793 
    126 H126      -83.7096   25.5053  -72.0188 H         1 UNK         0.0793 
    127 H127      -82.7540   26.8752  -73.8510 H         1 UNK         0.2896 
@<TRIPOS>BOND
     1    1    2 1    
     2    1   67 1    
     3    1   68 1    
     4    1   69 1    
     5    2    3 2    
     6    2    4 am   BACKBONE|DICT|INTERRES
     7    4    5 1    
     8    4   70 1    
     9    5    6 1    
    10    5   65 1    
    11    5   71 1    
    12    6    7 1    
    13    6   72 1    
    14    6   73 1    
    15    7    8 1    
    16    8    9 1    
    17    8   74 1    
    18    8   75 1    
    19    9   10 ar   
    20    9   14 ar   
    21   10   11 ar   
    22   10   76 1    
    23   11   12 ar   
    24   11   48 1    
    25   12   13 ar   
    26   12   77 1    
    27   13   14 ar   
    28   13   15 1    
    29   14   78 1    
    30   15   16 1    
    31   15   79 1    
    32   15   80 1    
    33   16   17 1    
    34   17   18 1    
    35   17   81 1    
    36   17   82 1    
    37   18   19 1    
    38   18   22 1    
    39   18   83 1    
    40   19   20 am   BACKBONE|DICT|INTERRES
    41   19   21 2    
    42   20   84 1    
    43   20   85 1    
    44   22   23 am   BACKBONE|DICT|INTERRES
    45   22   86 1    
    46   23   24 2    
    47   23   25 1    
    48   25   26 1    
    49   25   27 1    
    50   25   87 1    
    51   26   88 1    
    52   26   89 1    
    53   26   90 1    
    54   27   28 am   BACKBONE|DICT|INTERRES
    55   27   91 1    
    56   28   29 2    
    57   28   30 1    
    58   30   31 1    
    59   30   32 1    
    60   30   92 1    
    61   31   93 1    
    62   31   94 1    
    63   31   95 1    
    64   32   33 am   BACKBONE|DICT|INTERRES
    65   32   96 1    
    66   33   34 2    
    67   33   35 1    
    68   35   36 1    
    69   35   37 1    
    70   35   97 1    
    71   36   98 1    
    72   36   99 1    
    73   36  100 1    
    74   37   38 am   BACKBONE|DICT|INTERRES
    75   37  101 1    
    76   38   39 2    
    77   38   40 1    
    78   40   41 1    
    79   40   42 1    
    80   40  102 1    
    81   41  103 1    
    82   41  104 1    
    83   41  105 1    
    84   42   43 am   BACKBONE|DICT|INTERRES
    85   42  106 1    
    86   43   44 2    
    87   43   45 1    
    88   45   46 1    
    89   45   49 1    
    90   45  107 1    
    91   46   47 1    
    92   46  108 1    
    93   46  109 1    
    94   47   48 1    
    95   48  110 1    
    96   48  111 1    
    97   49   50 am   BACKBONE|DICT|INTERRES
    98   49  112 1    
    99   50   51 2    
   100   50   52 1    
   101   52   53 1    
   102   52   54 1    
   103   52  113 1    
   104   53  114 1    
   105   53  115 1    
   106   53  116 1    
   107   54   55 am   BACKBONE|DICT|INTERRES
   108   54  117 1    
   109   55   56 2    
   110   55   57 1    
   111   57   58 1    
   112   57   59 1    
   113   57  118 1    
   114   58  119 1    
   115   58  120 1    
   116   58  121 1    
   117   59   60 am   BACKBONE|DICT|INTERRES
   118   59  122 1    
   119   60   61 2    
   120   60   62 1    
   121   62   63 1    
   122   62   64 1    
   123   62  123 1    
   124   63  124 1    
   125   63  125 1    
   126   63  126 1    
   127   64   65 am   BACKBONE|DICT|INTERRES
   128   64  127 1    
   129   65   66 2    
@<TRIPOS>SUBSTRUCTURE
     1 UNK         1 GROUP             0       ****    0 ROOT    
