@<TRIPOS>MOLECULE
3R135
127   129    1
SMALL
USER_CHARGES


@<TRIPOS>ATOM
      1 CA        -84.7215   29.1662  -74.9236 C.3       0 UNK        -0.1998 
      2 C         -83.4714   28.4711  -75.4409 C.2       0 UNK         0.4909 
      3 O         -83.3668   28.2067  -76.6399 O.2       0 UNK        -0.5240 
      4 N         -82.5204   28.1689  -74.5482 N.am      1 UNK        -0.4739 
      5 CA        -81.2587   27.4879  -74.8591 C.3       1 UNK         0.0864 
      6 C6        -80.1478   27.8249  -73.8298 C.3       11 UNK        -0.0881 
      7 S7        -79.7289   29.6037  -73.8334 S.3       11 UNK        -0.2682 
      8 C8        -79.9594   30.0677  -72.0862 C.3       11 UNK         0.0289 
      9 C9        -78.7412   29.7026  -71.2502 C.ar      11 UNK        -0.0687 
     10 C10       -78.6580   28.4533  -70.6317 C.ar      11 UNK        -0.0823 
     11 C11       -77.5155   28.0957  -69.9110 C.ar      11 UNK        -0.0830 
     12 C12       -76.4798   29.0206  -69.7537 C.ar      11 UNK        -0.1021 
     13 C13       -76.5365   30.2677  -70.3887 C.ar      11 UNK        -0.0753 
     14 C14       -77.6783   30.6032  -71.1250 C.ar      11 UNK        -0.0933 
     15 C15       -75.3774   31.2629  -70.3199 C.3       11 UNK         0.0166 
     16 S16       -73.7189   30.5034  -70.1919 S.3       11 UNK        -0.2615 
     17 C17       -73.5777   29.5399  -71.7425 C.3       11 UNK        -0.0865 
     18 CA        -72.3548   29.9417  -72.6157 C.3       10 UNK         0.0862 
     19 C         -71.0017   29.3948  -72.0539 C.2       10 UNK         0.5551 
     20 N         -70.2117   28.6365  -72.8057 N.am      10 UNK        -0.7319 
     21 O         -70.6422   29.6770  -70.9142 O.2       10 UNK        -0.5018 
     22 N         -72.5984   29.6107  -74.0294 N.am      10 UNK        -0.4509 
     23 C         -71.9869   30.1862  -75.0723 C.2       10 UNK         0.4899 
     24 O         -71.2211   31.1463  -74.9721 O.2       10 UNK        -0.4839 
     25 CA        -72.2676   29.5571  -76.4527 C.3       9 UNK         0.0222 
     26 CB        -71.3528   30.1097  -77.5656 C.3       9 UNK        -0.1966 
     27 N         -72.2205   28.0890  -76.4287 N.am      9 UNK        -0.4218 
     28 C         -71.1996   27.3042  -76.0486 C.2       9 UNK         0.5020 
     29 O         -70.1104   27.7374  -75.6717 O.2       9 UNK        -0.5274 
     30 CA        -71.4301   25.7791  -76.0370 C.3       8 UNK         0.0270 
     31 CB        -71.4642   25.2611  -74.5891 C.3       8 UNK        -0.1976 
     32 N         -72.6595   25.3591  -76.7140 N.am      8 UNK        -0.4313 
     33 C         -72.8508   25.3497  -78.0404 C.2       8 UNK         0.5041 
     34 O         -71.9730   25.6092  -78.8636 O.2       8 UNK        -0.5577 
     35 CA        -74.2827   25.0581  -78.5210 C.3       7 UNK         0.0284 
     36 CB        -74.5481   23.5462  -78.6103 C.3       7 UNK        -0.1958 
     37 N         -75.2776   25.6907  -77.6498 N.am      7 UNK        -0.4454 
     38 C         -75.5201   27.0093  -77.6190 C.2       7 UNK         0.5089 
     39 O         -74.9878   27.8204  -78.3753 O.2       7 UNK        -0.5125 
     40 CA        -76.4823   27.5186  -76.5355 C.3       6 UNK         0.0408 
     41 CB        -77.9204   27.5788  -77.0710 C.3       6 UNK        -0.1791 
     42 N         -76.4306   26.7086  -75.3153 N.am      6 UNK        -0.4762 
     43 C         -75.4331   26.7732  -74.4200 C.2       6 UNK         0.5007 
     44 O         -74.4749   27.5382  -74.5243 O.2       6 UNK        -0.5032 
     45 CA        -75.4982   25.8256  -73.2040 C.3       5 UNK         0.0783 
     46 C46       -76.3100   26.5119  -72.0885 C.3       11 UNK        -0.0857 
     47 S47       -76.1597   25.7131  -70.4520 S.3       11 UNK        -0.2512 
     48 C48       -77.3427   26.6644  -69.4203 C.3       11 UNK         0.0225 
     49 N         -76.0363   24.5028  -73.5271 N.am      5 UNK        -0.4615 
     50 C         -75.5717   23.6750  -74.4705 C.2       4 UNK         0.5053 
     51 O         -74.5775   23.9114  -75.1571 O.2       4 UNK        -0.5105 
     52 CA        -76.3940   22.4034  -74.7510 C.3       4 UNK         0.0263 
     53 CB        -77.3007   21.9800  -73.5730 C.3       4 UNK        -0.1981 
     54 N         -77.1908   22.5207  -75.9812 N.am      4 UNK        -0.4224 
     55 C         -78.0552   23.4989  -76.2978 C.2       3 UNK         0.4895 
     56 O         -78.2397   24.5031  -75.6066 O.2       3 UNK        -0.5091 
     57 CA        -78.8276   23.3757  -77.6259 C.3       3 UNK         0.0250 
     58 CB        -78.7847   21.9702  -78.2691 C.3       3 UNK        -0.1996 
     59 N         -80.2063   23.8569  -77.4656 N.am      3 UNK        -0.4254 
     60 C         -81.1589   23.3349  -76.6757 C.2       2 UNK         0.5004 
     61 O         -81.0544   22.2644  -76.0730 O.2       2 UNK        -0.5226 
     62 CA        -82.4326   24.1903  -76.5243 C.3       2 UNK         0.0269 
     63 CB        -83.4831   23.5583  -75.5854 C.3       2 UNK        -0.1926 
     64 N         -82.1237   25.5678  -76.1112 N.am      2 UNK        -0.4687 
     65 C         -81.4972   25.9684  -74.9923 C.2       1 UNK         0.5165 
     66 O         -81.1519   25.2125  -74.0828 O.2       1 UNK        -0.5079 
     67 H67       -84.8492   30.1268  -75.4220 H         1 UNK         0.0900 
     68 H68       -84.6738   29.3453  -73.8496 H         1 UNK         0.0900 
     69 H69       -85.6011   28.5563  -75.1276 H         1 UNK         0.0900 
     70 H70       -82.6647   28.3941  -73.5746 H         1 UNK         0.2959 
     71 H71       -80.9104   27.8374  -75.8336 H         1 UNK         0.1079 
     72 H72       -79.2352   27.2695  -74.0552 H         1 UNK         0.0837 
     73 H73       -80.4526   27.5117  -72.8309 H         1 UNK         0.0837 
     74 H74       -80.1314   31.1437  -72.0315 H         1 UNK         0.0685 
     75 H75       -80.8594   29.5980  -71.6867 H         1 UNK         0.0685 
     76 H76       -79.4587   27.7380  -70.7553 H         1 UNK         0.1434 
     77 H77       -75.5986   28.7313  -69.1982 H         1 UNK         0.1329 
     78 H78       -77.7339   31.5623  -71.6218 H         1 UNK         0.1335 
     79 H79       -75.3854   31.9125  -71.1968 H         1 UNK         0.0680 
     80 H80       -75.5296   31.9091  -69.4547 H         1 UNK         0.0680 
     81 H81       -74.4980   29.6832  -72.3113 H         1 UNK         0.1032 
     82 H82       -73.5494   28.4760  -71.4997 H         1 UNK         0.1032 
     83 H83       -72.2717   31.0292  -72.5681 H         1 UNK         0.0461 
     84 H84       -69.3425   28.3081  -72.4168 H         1 UNK         0.3453 
     85 H85       -70.4317   28.4358  -73.7735 H         1 UNK         0.3453 
     86 H86       -73.2187   28.8229  -74.2082 H         1 UNK         0.2984 
     87 H87       -73.2949   29.8232  -76.7060 H         1 UNK         0.0554 
     88 H88       -71.5955   29.6685  -78.5324 H         1 UNK         0.0847 
     89 H89       -70.3004   29.9107  -77.3607 H         1 UNK         0.0847 
     90 H90       -71.4664   31.1898  -77.6656 H         1 UNK         0.0847 
     91 H91       -73.0860   27.6278  -76.6712 H         1 UNK         0.3141 
     92 H92       -70.5831   25.3172  -76.5484 H         1 UNK         0.0743 
     93 H93       -70.5340   25.4914  -74.0678 H         1 UNK         0.0784 
     94 H94       -72.2764   25.7138  -74.0198 H         1 UNK         0.0784 
     95 H95       -71.5942   24.1791  -74.5562 H         1 UNK         0.0784 
     96 H96       -73.4168   25.0307  -76.1178 H         1 UNK         0.3213 
     97 H97       -74.3885   25.4784  -79.5239 H         1 UNK         0.0855 
     98 H98       -73.8405   23.0699  -79.2903 H         1 UNK         0.0814 
     99 H99       -75.5486   23.3410  -78.9910 H         1 UNK         0.0814 
    100 H100      -74.4480   23.0527  -77.6437 H         1 UNK         0.0814 
    101 H101      -75.7073   25.1096  -76.9444 H         1 UNK         0.3105 
    102 H102      -76.1813   28.5381  -76.2838 H         1 UNK         0.0547 
    103 H103      -77.9693   28.1612  -77.9921 H         1 UNK         0.0837 
    104 H104      -78.3199   26.5892  -77.2904 H         1 UNK         0.0837 
    105 H105      -78.5813   28.0624  -76.3544 H         1 UNK         0.0837 
    106 H106      -77.1618   26.0102  -75.1933 H         1 UNK         0.3020 
    107 H107      -74.4732   25.6849  -72.8553 H         1 UNK         0.1245 
    108 H108      -77.3655   26.5639  -72.3630 H         1 UNK         0.0781 
    109 H109      -75.9685   27.5424  -71.9786 H         1 UNK         0.0781 
    110 H110      -76.9953   26.6677  -68.3863 H         1 UNK         0.0836 
    111 H111      -78.3017   26.1439  -69.4176 H         1 UNK         0.0836 
    112 H112      -76.8769   24.2370  -73.0359 H         1 UNK         0.3022 
    113 H113      -75.6701   21.6041  -74.9172 H         1 UNK         0.0747 
    114 H114      -77.7486   21.0041  -73.7609 H         1 UNK         0.0793 
    115 H115      -76.7327   21.8961  -72.6453 H         1 UNK         0.0793 
    116 H116      -78.1176   22.6829  -73.4037 H         1 UNK         0.0793 
    117 H117      -77.0899   21.7572  -76.6350 H         1 UNK         0.3047 
    118 H118      -78.3442   24.0669  -78.3179 H         1 UNK         0.0822 
    119 H119      -79.1536   21.1960  -77.5952 H         1 UNK         0.0807 
    120 H120      -77.7706   21.6986  -78.5645 H         1 UNK         0.0807 
    121 H121      -79.3941   21.9358  -79.1724 H         1 UNK         0.0807 
    122 H122      -80.3984   24.7554  -77.8851 H         1 UNK         0.2946 
    123 H123      -82.8797   24.2516  -77.5181 H         1 UNK         0.1144 
    124 H124      -84.3802   24.1742  -75.5228 H         1 UNK         0.0793 
    125 H125      -83.0982   23.4230  -74.5742 H         1 UNK         0.0793 
    126 H126      -83.7888   22.5765  -75.9489 H         1 UNK         0.0793 
    127 H127      -82.4377   26.2990  -76.7414 H         1 UNK         0.2896 
@<TRIPOS>BOND
     1    1    2 1    
     2    1   67 1    
     3    1   68 1    
     4    1   69 1    
     5    2    3 2    
     6    2    4 am   BACKBONE|DICT|INTERRES
     7    4    5 1    
     8    4   70 1    
     9    5    6 1    
    10    5   65 1    
    11    5   71 1    
    12    6    7 1    
    13    6   72 1    
    14    6   73 1    
    15    7    8 1    
    16    8    9 1    
    17    8   74 1    
    18    8   75 1    
    19    9   10 ar   
    20    9   14 ar   
    21   10   11 ar   
    22   10   76 1    
    23   11   12 ar   
    24   11   48 1    
    25   12   13 ar   
    26   12   77 1    
    27   13   14 ar   
    28   13   15 1    
    29   14   78 1    
    30   15   16 1    
    31   15   79 1    
    32   15   80 1    
    33   16   17 1    
    34   17   18 1    
    35   17   81 1    
    36   17   82 1    
    37   18   19 1    
    38   18   22 1    
    39   18   83 1    
    40   19   20 am   BACKBONE|DICT|INTERRES
    41   19   21 2    
    42   20   84 1    
    43   20   85 1    
    44   22   23 am   BACKBONE|DICT|INTERRES
    45   22   86 1    
    46   23   24 2    
    47   23   25 1    
    48   25   26 1    
    49   25   27 1    
    50   25   87 1    
    51   26   88 1    
    52   26   89 1    
    53   26   90 1    
    54   27   28 am   BACKBONE|DICT|INTERRES
    55   27   91 1    
    56   28   29 2    
    57   28   30 1    
    58   30   31 1    
    59   30   32 1    
    60   30   92 1    
    61   31   93 1    
    62   31   94 1    
    63   31   95 1    
    64   32   33 am   BACKBONE|DICT|INTERRES
    65   32   96 1    
    66   33   34 2    
    67   33   35 1    
    68   35   36 1    
    69   35   37 1    
    70   35   97 1    
    71   36   98 1    
    72   36   99 1    
    73   36  100 1    
    74   37   38 am   BACKBONE|DICT|INTERRES
    75   37  101 1    
    76   38   39 2    
    77   38   40 1    
    78   40   41 1    
    79   40   42 1    
    80   40  102 1    
    81   41  103 1    
    82   41  104 1    
    83   41  105 1    
    84   42   43 am   BACKBONE|DICT|INTERRES
    85   42  106 1    
    86   43   44 2    
    87   43   45 1    
    88   45   46 1    
    89   45   49 1    
    90   45  107 1    
    91   46   47 1    
    92   46  108 1    
    93   46  109 1    
    94   47   48 1    
    95   48  110 1    
    96   48  111 1    
    97   49   50 am   BACKBONE|DICT|INTERRES
    98   49  112 1    
    99   50   51 2    
   100   50   52 1    
   101   52   53 1    
   102   52   54 1    
   103   52  113 1    
   104   53  114 1    
   105   53  115 1    
   106   53  116 1    
   107   54   55 am   BACKBONE|DICT|INTERRES
   108   54  117 1    
   109   55   56 2    
   110   55   57 1    
   111   57   58 1    
   112   57   59 1    
   113   57  118 1    
   114   58  119 1    
   115   58  120 1    
   116   58  121 1    
   117   59   60 am   BACKBONE|DICT|INTERRES
   118   59  122 1    
   119   60   61 2    
   120   60   62 1    
   121   62   63 1    
   122   62   64 1    
   123   62  123 1    
   124   63  124 1    
   125   63  125 1    
   126   63  126 1    
   127   64   65 am   BACKBONE|DICT|INTERRES
   128   64  127 1    
   129   65   66 2    
@<TRIPOS>SUBSTRUCTURE
     1 UNK         1 GROUP             0       ****    0 ROOT    
