@<TRIPOS>MOLECULE
3R135
127   129    1
SMALL
USER_CHARGES


@<TRIPOS>ATOM
      1 CA        -84.6041   24.7906  -74.6801 C.3       0 UNK        -0.1998 
      2 C         -83.6362   25.9546  -74.8264 C.2       0 UNK         0.4909 
      3 O         -83.2493   26.2925  -75.9458 O.2       0 UNK        -0.5240 
      4 N         -83.2392   26.5724  -73.7054 N.am      1 UNK        -0.4739 
      5 CA        -82.2363   27.6415  -73.6602 C.3       1 UNK         0.0864 
      6 C6        -82.2204   28.3408  -72.2777 C.3       11 UNK        -0.0881 
      7 S7        -81.3755   29.9628  -72.3026 S.3       11 UNK        -0.2682 
      8 C8        -80.1733   29.8111  -70.9391 C.3       11 UNK         0.0289 
      9 C9        -78.9066   29.0742  -71.3552 C.ar      11 UNK        -0.0687 
     10 C10       -78.8322   27.6842  -71.2439 C.ar      11 UNK        -0.0823 
     11 C11       -77.6796   26.9897  -71.6217 C.ar      11 UNK        -0.0830 
     12 C12       -76.5741   27.7167  -72.0858 C.ar      11 UNK        -0.1021 
     13 C13       -76.6310   29.1089  -72.2045 C.ar      11 UNK        -0.0753 
     14 C14       -77.8017   29.7818  -71.8387 C.ar      11 UNK        -0.0933 
     15 C15       -75.4375   29.8801  -72.7551 C.3       11 UNK         0.0166 
     16 S16       -74.0020   29.7813  -71.6347 S.3       11 UNK        -0.2615 
     17 C17       -73.2752   31.4578  -71.7451 C.3       11 UNK        -0.0865 
     18 CA        -71.9242   31.5313  -72.5062 C.3       10 UNK         0.0862 
     19 C         -70.7639   30.8048  -71.7590 C.2       10 UNK         0.5551 
     20 N         -70.0432   29.8729  -72.3737 N.am      10 UNK        -0.7319 
     21 O         -70.5000   31.1096  -70.5983 O.2       10 UNK        -0.5018 
     22 N         -72.0786   31.1613  -73.9202 N.am      10 UNK        -0.4509 
     23 C         -71.2859   31.5854  -74.9135 C.2       10 UNK         0.4899 
     24 O         -70.3960   32.4250  -74.7676 O.2       10 UNK        -0.4839 
     25 CA        -71.5288   30.9511  -76.2981 C.3       9 UNK         0.0222 
     26 CB        -70.3300   31.1192  -77.2556 C.3       9 UNK        -0.1966 
     27 N         -71.9351   29.5427  -76.2147 N.am      9 UNK        -0.4218 
     28 C         -71.2612   28.5199  -75.6720 C.2       9 UNK         0.5020 
     29 O         -70.1433   28.6367  -75.1678 O.2       9 UNK        -0.5274 
     30 CA        -71.9390   27.1331  -75.6448 C.3       8 UNK         0.0270 
     31 CB        -72.4918   26.8418  -74.2371 C.3       8 UNK        -0.1976 
     32 N         -72.9665   26.8622  -76.6673 N.am      8 UNK        -0.4313 
     33 C         -74.1218   27.5000  -76.8999 C.2       8 UNK         0.5041 
     34 O         -74.4748   28.5154  -76.3010 O.2       8 UNK        -0.5577 
     35 CA        -75.0362   26.9290  -77.9922 C.3       7 UNK         0.0284 
     36 CB        -74.5362   27.2881  -79.4056 C.3       7 UNK        -0.1958 
     37 N         -75.3065   25.4966  -77.8297 N.am      7 UNK        -0.4454 
     38 C         -74.5004   24.4507  -78.0544 C.2       7 UNK         0.5089 
     39 O         -73.3378   24.5515  -78.4517 O.2       7 UNK        -0.5125 
     40 CA        -75.1059   23.0693  -77.7340 C.3       6 UNK         0.0408 
     41 CB        -74.1213   21.9033  -77.9650 C.3       6 UNK        -0.1791 
     42 N         -75.6787   23.0276  -76.3825 N.am      6 UNK        -0.4762 
     43 C         -75.0257   23.2175  -75.2225 C.2       6 UNK         0.5007 
     44 O         -73.8023   23.3354  -75.1468 O.2       6 UNK        -0.5032 
     45 CA        -75.8624   23.3142  -73.9276 C.3       5 UNK         0.0783 
     46 C46       -75.5163   24.6134  -73.1587 C.3       11 UNK        -0.0857 
     47 S47       -76.1138   24.6094  -71.4356 S.3       11 UNK        -0.2512 
     48 C48       -77.7204   25.4613  -71.5686 C.3       11 UNK         0.0225 
     49 N         -77.2972   23.2545  -74.2217 N.am      5 UNK        -0.4615 
     50 C         -78.0998   22.2094  -73.9877 C.2       4 UNK         0.5053 
     51 O         -77.7175   21.1537  -73.4833 O.2       4 UNK        -0.5105 
     52 CA        -79.5822   22.3569  -74.3851 C.3       4 UNK         0.0263 
     53 CB        -80.4535   22.5936  -73.1406 C.3       4 UNK        -0.1981 
     54 N         -79.8240   23.4315  -75.3539 N.am      4 UNK        -0.4224 
     55 C         -79.4610   23.3787  -76.6455 C.2       3 UNK         0.4895 
     56 O         -78.9117   22.4038  -77.1583 O.2       3 UNK        -0.5091 
     57 CA        -79.6912   24.6377  -77.5025 C.3       3 UNK         0.0250 
     58 CB        -81.0407   24.5505  -78.2314 C.3       3 UNK        -0.1996 
     59 N         -79.6253   25.8903  -76.7438 N.am      3 UNK        -0.4254 
     60 C         -78.5553   26.3125  -76.0541 C.2       2 UNK         0.5004 
     61 O         -77.4900   25.6964  -76.0178 O.2       2 UNK        -0.5226 
     62 CA        -78.7083   27.5959  -75.2207 C.3       2 UNK         0.0269 
     63 CB        -78.1422   28.8115  -75.9669 C.3       2 UNK        -0.1926 
     64 N         -80.0798   27.8923  -74.7977 N.am      2 UNK        -0.4687 
     65 C         -80.8487   27.0915  -74.0480 C.2       1 UNK         0.5165 
     66 O         -80.5079   25.9655  -73.6742 O.2       1 UNK        -0.5079 
     67 H67       -84.8710   24.6104  -73.6389 H         1 UNK         0.0900 
     68 H68       -84.1563   23.8803  -75.0779 H         1 UNK         0.0900 
     69 H69       -85.5197   24.9917  -75.2355 H         1 UNK         0.0900 
     70 H70       -83.5651   26.2347  -72.8112 H         1 UNK         0.2959 
     71 H71       -82.5323   28.3791  -74.4101 H         1 UNK         0.1079 
     72 H72       -83.2452   28.5343  -71.9564 H         1 UNK         0.0837 
     73 H73       -81.7960   27.6894  -71.5134 H         1 UNK         0.0837 
     74 H74       -79.9143   30.8139  -70.5960 H         1 UNK         0.0685 
     75 H75       -80.6404   29.3165  -70.0860 H         1 UNK         0.0685 
     76 H76       -79.6869   27.1318  -70.8805 H         1 UNK         0.1434 
     77 H77       -75.6616   27.2170  -72.3718 H         1 UNK         0.1329 
     78 H78       -77.8559   30.8579  -71.9308 H         1 UNK         0.1335 
     79 H79       -75.7154   30.9199  -72.9294 H         1 UNK         0.0680 
     80 H80       -75.1601   29.4713  -73.7280 H         1 UNK         0.0680 
     81 H81       -73.1481   31.8317  -70.7273 H         1 UNK         0.1032 
     82 H82       -73.9859   32.1448  -72.2052 H         1 UNK         0.1032 
     83 H83       -71.6364   32.5844  -72.4909 H         1 UNK         0.0461 
     84 H84       -69.2947   29.4243  -71.8706 H         1 UNK         0.3453 
     85 H85       -70.2196   29.6197  -73.3383 H         1 UNK         0.3453 
     86 H86       -72.7685   30.4517  -74.1179 H         1 UNK         0.2984 
     87 H87       -72.3753   31.4853  -76.7316 H         1 UNK         0.0554 
     88 H88       -70.5335   30.6725  -78.2287 H         1 UNK         0.0847 
     89 H89       -69.4258   30.6578  -76.8571 H         1 UNK         0.0847 
     90 H90       -70.1085   32.1736  -77.4250 H         1 UNK         0.0847 
     91 H91       -72.8987   29.3382  -76.4797 H         1 UNK         0.3141 
     92 H92       -71.1422   26.4130  -75.8374 H         1 UNK         0.0743 
     93 H93       -73.3725   27.4423  -74.0068 H         1 UNK         0.0784 
     94 H94       -72.7617   25.7916  -74.1459 H         1 UNK         0.0784 
     95 H95       -71.7475   27.0480  -73.4663 H         1 UNK         0.0784 
     96 H96       -72.7922   26.0484  -77.2523 H         1 UNK         0.3213 
     97 H97       -76.0056   27.4128  -77.8705 H         1 UNK         0.0855 
     98 H98       -73.5443   26.8851  -79.6107 H         1 UNK         0.0814 
     99 H99       -74.4730   28.3702  -79.5278 H         1 UNK         0.0814 
    100 H100      -75.2151   26.9151  -80.1723 H         1 UNK         0.0814 
    101 H101      -76.1885   25.3054  -77.3596 H         1 UNK         0.3105 
    102 H102      -75.9409   22.9328  -78.4230 H         1 UNK         0.0547 
    103 H103      -73.7906   21.8761  -79.0039 H         1 UNK         0.0837 
    104 H104      -73.2281   21.9915  -77.3461 H         1 UNK         0.0837 
    105 H105      -74.5867   20.9422  -77.7479 H         1 UNK         0.0837 
    106 H106      -76.6837   22.9193  -76.3395 H         1 UNK         0.3020 
    107 H107      -75.5661   22.4608  -73.3135 H         1 UNK         0.1245 
    108 H108      -75.8929   25.4820  -73.7007 H         1 UNK         0.0781 
    109 H109      -74.4371   24.7443  -73.0837 H         1 UNK         0.0781 
    110 H110      -78.3176   25.1504  -70.7100 H         1 UNK         0.0836 
    111 H111      -78.2503   25.0997  -72.4488 H         1 UNK         0.0836 
    112 H112      -77.6792   24.0772  -74.6733 H         1 UNK         0.3022 
    113 H113      -79.8917   21.4139  -74.8409 H         1 UNK         0.0747 
    114 H114      -81.5099   22.6605  -73.4013 H         1 UNK         0.0793 
    115 H115      -80.3468   21.7741  -72.4285 H         1 UNK         0.0793 
    116 H116      -80.1782   23.5119  -72.6215 H         1 UNK         0.0793 
    117 H117      -80.2272   24.2881  -74.9885 H         1 UNK         0.3047 
    118 H118      -78.8985   24.6691  -78.2531 H         1 UNK         0.0822 
    119 H119      -81.1895   25.4005  -78.8976 H         1 UNK         0.0807 
    120 H120      -81.8765   24.5221  -77.5314 H         1 UNK         0.0807 
    121 H121      -81.0968   23.6481  -78.8420 H         1 UNK         0.0807 
    122 H122      -80.4718   26.4406  -76.6970 H         1 UNK         0.2946 
    123 H123      -78.1171   27.4485  -74.3181 H         1 UNK         0.1144 
    124 H124      -78.6785   29.0047  -76.8967 H         1 UNK         0.0793 
    125 H125      -77.0933   28.6595  -76.2158 H         1 UNK         0.0793 
    126 H126      -78.1917   29.7110  -75.3526 H         1 UNK         0.0793 
    127 H127      -80.4350   28.8048  -75.0456 H         1 UNK         0.2896 
@<TRIPOS>BOND
     1    1    2 1    
     2    1   67 1    
     3    1   68 1    
     4    1   69 1    
     5    2    3 2    
     6    2    4 am   BACKBONE|DICT|INTERRES
     7    4    5 1    
     8    4   70 1    
     9    5    6 1    
    10    5   65 1    
    11    5   71 1    
    12    6    7 1    
    13    6   72 1    
    14    6   73 1    
    15    7    8 1    
    16    8    9 1    
    17    8   74 1    
    18    8   75 1    
    19    9   10 ar   
    20    9   14 ar   
    21   10   11 ar   
    22   10   76 1    
    23   11   12 ar   
    24   11   48 1    
    25   12   13 ar   
    26   12   77 1    
    27   13   14 ar   
    28   13   15 1    
    29   14   78 1    
    30   15   16 1    
    31   15   79 1    
    32   15   80 1    
    33   16   17 1    
    34   17   18 1    
    35   17   81 1    
    36   17   82 1    
    37   18   19 1    
    38   18   22 1    
    39   18   83 1    
    40   19   20 am   BACKBONE|DICT|INTERRES
    41   19   21 2    
    42   20   84 1    
    43   20   85 1    
    44   22   23 am   BACKBONE|DICT|INTERRES
    45   22   86 1    
    46   23   24 2    
    47   23   25 1    
    48   25   26 1    
    49   25   27 1    
    50   25   87 1    
    51   26   88 1    
    52   26   89 1    
    53   26   90 1    
    54   27   28 am   BACKBONE|DICT|INTERRES
    55   27   91 1    
    56   28   29 2    
    57   28   30 1    
    58   30   31 1    
    59   30   32 1    
    60   30   92 1    
    61   31   93 1    
    62   31   94 1    
    63   31   95 1    
    64   32   33 am   BACKBONE|DICT|INTERRES
    65   32   96 1    
    66   33   34 2    
    67   33   35 1    
    68   35   36 1    
    69   35   37 1    
    70   35   97 1    
    71   36   98 1    
    72   36   99 1    
    73   36  100 1    
    74   37   38 am   BACKBONE|DICT|INTERRES
    75   37  101 1    
    76   38   39 2    
    77   38   40 1    
    78   40   41 1    
    79   40   42 1    
    80   40  102 1    
    81   41  103 1    
    82   41  104 1    
    83   41  105 1    
    84   42   43 am   BACKBONE|DICT|INTERRES
    85   42  106 1    
    86   43   44 2    
    87   43   45 1    
    88   45   46 1    
    89   45   49 1    
    90   45  107 1    
    91   46   47 1    
    92   46  108 1    
    93   46  109 1    
    94   47   48 1    
    95   48  110 1    
    96   48  111 1    
    97   49   50 am   BACKBONE|DICT|INTERRES
    98   49  112 1    
    99   50   51 2    
   100   50   52 1    
   101   52   53 1    
   102   52   54 1    
   103   52  113 1    
   104   53  114 1    
   105   53  115 1    
   106   53  116 1    
   107   54   55 am   BACKBONE|DICT|INTERRES
   108   54  117 1    
   109   55   56 2    
   110   55   57 1    
   111   57   58 1    
   112   57   59 1    
   113   57  118 1    
   114   58  119 1    
   115   58  120 1    
   116   58  121 1    
   117   59   60 am   BACKBONE|DICT|INTERRES
   118   59  122 1    
   119   60   61 2    
   120   60   62 1    
   121   62   63 1    
   122   62   64 1    
   123   62  123 1    
   124   63  124 1    
   125   63  125 1    
   126   63  126 1    
   127   64   65 am   BACKBONE|DICT|INTERRES
   128   64  127 1    
   129   65   66 2    
@<TRIPOS>SUBSTRUCTURE
     1 UNK         1 GROUP             0       ****    0 ROOT    
