@<TRIPOS>MOLECULE
3R135
127   129    1
SMALL
USER_CHARGES


@<TRIPOS>ATOM
      1 CA        -84.7824   22.6087  -72.1742 C.3       0 UNK        -0.1998 
      2 C         -84.5999   24.0700  -72.5567 C.2       0 UNK         0.4909 
      3 O         -85.5668   24.7247  -72.9496 O.2       0 UNK        -0.5240 
      4 N         -83.3702   24.5847  -72.4354 N.am      1 UNK        -0.4739 
      5 CA        -82.9816   25.9441  -72.8244 C.3       1 UNK         0.0864 
      6 C6        -81.8963   26.5091  -71.8681 C.3       11 UNK        -0.0881 
      7 S7        -80.2819   25.6506  -71.9613 S.3       11 UNK        -0.2682 
      8 C8        -79.4091   26.3467  -70.5158 C.3       11 UNK         0.0289 
      9 C9        -78.4326   27.4637  -70.8777 C.ar      11 UNK        -0.0687 
     10 C10       -78.8666   28.5944  -71.5776 C.ar      11 UNK        -0.0823 
     11 C11       -77.9784   29.6279  -71.8821 C.ar      11 UNK        -0.0830 
     12 C12       -76.6640   29.5594  -71.4253 C.ar      11 UNK        -0.1021 
     13 C13       -76.1968   28.4211  -70.7673 C.ar      11 UNK        -0.0753 
     14 C14       -77.0878   27.3763  -70.4928 C.ar      11 UNK        -0.0933 
     15 C15       -74.7291   28.3235  -70.3708 C.3       11 UNK         0.0166 
     16 S16       -73.6381   28.1722  -71.8273 S.3       11 UNK        -0.2615 
     17 C17       -73.4565   29.9146  -72.3627 C.3       11 UNK        -0.0865 
     18 CA        -72.1258   30.2423  -73.0863 C.3       10 UNK         0.0862 
     19 C         -70.8844   30.1035  -72.1587 C.2       10 UNK         0.5551 
     20 N         -70.6705   31.0674  -71.2726 N.am      10 UNK        -0.7319 
     21 O         -70.1344   29.1310  -72.2095 O.2       10 UNK        -0.5018 
     22 N         -72.0240   29.5034  -74.3496 N.am      10 UNK        -0.4509 
     23 C         -71.1582   29.7637  -75.3368 C.2       10 UNK         0.4899 
     24 O         -70.3650   30.7069  -75.3224 O.2       10 UNK        -0.4839 
     25 CA        -71.2150   28.8205  -76.5559 C.3       9 UNK         0.0222 
     26 CB        -69.9558   28.8977  -77.4455 C.3       9 UNK        -0.1966 
     27 N         -71.5217   27.4340  -76.1845 N.am      9 UNK        -0.4218 
     28 C         -70.7879   26.6129  -75.4153 C.2       9 UNK         0.5020 
     29 O         -69.6767   26.8959  -74.9665 O.2       9 UNK        -0.5274 
     30 CA        -71.3927   25.2396  -75.0758 C.3       8 UNK         0.0270 
     31 CB        -71.8111   25.1801  -73.5980 C.3       8 UNK        -0.1976 
     32 N         -72.5420   24.9036  -75.9223 N.am      8 UNK        -0.4313 
     33 C         -72.4227   24.3370  -77.1307 C.2       8 UNK         0.5041 
     34 O         -71.3436   24.0160  -77.6314 O.2       8 UNK        -0.5577 
     35 CA        -73.7131   24.0804  -77.9219 C.3       7 UNK         0.0284 
     36 CB        -74.3918   22.7895  -77.4368 C.3       7 UNK        -0.1958 
     37 N         -74.6678   25.1940  -77.9001 N.am      7 UNK        -0.4454 
     38 C         -74.4499   26.3887  -78.4707 C.2       7 UNK         0.5089 
     39 O         -73.3729   26.7273  -78.9611 O.2       7 UNK        -0.5125 
     40 CA        -75.6353   27.3670  -78.5286 C.3       6 UNK         0.0408 
     41 CB        -76.6740   26.9067  -79.5641 C.3       6 UNK        -0.1791 
     42 N         -76.2883   27.5427  -77.2353 N.am      6 UNK        -0.4762 
     43 C         -75.7634   28.2069  -76.1956 C.2       6 UNK         0.5007 
     44 O         -74.6736   28.7802  -76.2175 O.2       6 UNK        -0.5032 
     45 CA        -76.5868   28.1632  -74.8931 C.3       5 UNK         0.0783 
     46 C46       -77.8306   29.0975  -74.9768 C.3       11 UNK        -0.0857 
     47 S47       -77.5000   30.7811  -74.3523 S.3       11 UNK        -0.2512 
     48 C48       -78.4084   30.7884  -72.7659 C.3       11 UNK         0.0225 
     49 N         -76.9596   26.7868  -74.5452 N.am      5 UNK        -0.4615 
     50 C         -76.1184   25.7484  -74.4139 C.2       4 UNK         0.5053 
     51 O         -74.8959   25.8199  -74.5320 O.2       4 UNK        -0.5105 
     52 CA        -76.7589   24.3723  -74.1786 C.3       4 UNK         0.0263 
     53 CB        -76.9343   24.1044  -72.6774 C.3       4 UNK        -0.1981 
     54 N         -78.0367   24.2203  -74.8845 N.am      4 UNK        -0.4224 
     55 C         -78.1375   24.1663  -76.2220 C.2       3 UNK         0.4895 
     56 O         -77.1754   24.2337  -76.9857 O.2       3 UNK        -0.5091 
     57 CA        -79.5491   24.0667  -76.8138 C.3       3 UNK         0.0250 
     58 CB        -80.1906   22.7054  -76.4982 C.3       3 UNK        -0.1996 
     59 N         -80.4359   25.1433  -76.3738 N.am      3 UNK        -0.4254 
     60 C         -80.2339   26.4568  -76.5345 C.2       2 UNK         0.5004 
     61 O         -79.2180   26.9350  -77.0400 O.2       2 UNK        -0.5226 
     62 CA        -81.3456   27.4072  -76.0464 C.3       2 UNK         0.0269 
     63 CB        -82.4542   27.5436  -77.1078 C.3       2 UNK        -0.1926 
     64 N         -81.9068   27.0911  -74.7205 N.am      2 UNK        -0.4687 
     65 C         -82.5935   26.0074  -74.3224 C.2       1 UNK         0.5165 
     66 O         -82.8882   25.0776  -75.0790 O.2       1 UNK        -0.5079 
     67 H67       -85.5168   22.5186  -71.3742 H         1 UNK         0.0900 
     68 H68       -85.1398   22.0391  -73.0316 H         1 UNK         0.0900 
     69 H69       -83.8513   22.1574  -71.8319 H         1 UNK         0.0900 
     70 H70       -82.6088   23.9930  -72.1339 H         1 UNK         0.2959 
     71 H71       -83.8563   26.5910  -72.7244 H         1 UNK         0.1079 
     72 H72       -81.7594   27.5751  -72.0425 H         1 UNK         0.0837 
     73 H73       -82.2611   26.4375  -70.8420 H         1 UNK         0.0837 
     74 H74       -80.1263   26.7217  -69.7848 H         1 UNK         0.0685 
     75 H75       -78.8796   25.5297  -70.0234 H         1 UNK         0.0685 
     76 H76       -79.8902   28.6659  -71.9074 H         1 UNK         0.1434 
     77 H77       -75.9956   30.3794  -71.6361 H         1 UNK         0.1329 
     78 H78       -76.7349   26.4977  -69.9705 H         1 UNK         0.1335 
     79 H79       -74.5694   27.4520  -69.7341 H         1 UNK         0.0680 
     80 H80       -74.4448   29.1907  -69.7734 H         1 UNK         0.0680 
     81 H81       -73.5780   30.5739  -71.5016 H         1 UNK         0.1032 
     82 H82       -74.2814   30.1491  -73.0367 H         1 UNK         0.1032 
     83 H83       -72.1760   31.2964  -73.3679 H         1 UNK         0.0461 
     84 H84       -69.8788   30.9939  -70.6530 H         1 UNK         0.3453 
     85 H85       -71.2758   31.8716  -71.2164 H         1 UNK         0.3453 
     86 H86       -72.6340   28.7043  -74.4429 H         1 UNK         0.2984 
     87 H87       -72.0585   29.1594  -77.1589 H         1 UNK         0.0554 
     88 H88       -69.8188   29.9047  -77.8410 H         1 UNK         0.0847 
     89 H89       -70.0320   28.2234  -78.2986 H         1 UNK         0.0847 
     90 H90       -69.0512   28.6415  -76.8934 H         1 UNK         0.0847 
     91 H91       -72.4139   27.0894  -76.5124 H         1 UNK         0.3141 
     92 H92       -70.6079   24.4946  -75.2243 H         1 UNK         0.0743 
     93 H93       -72.5627   25.9322  -73.3631 H         1 UNK         0.0784 
     94 H94       -72.2204   24.2039  -73.3379 H         1 UNK         0.0784 
     95 H95       -70.9582   25.3617  -72.9428 H         1 UNK         0.0784 
     96 H96       -73.4628   25.1515  -75.5617 H         1 UNK         0.3213 
     97 H97       -73.4245   23.9277  -78.9643 H         1 UNK         0.0855 
     98 H98       -74.7381   22.8779  -76.4073 H         1 UNK         0.0814 
     99 H99       -73.7018   21.9456  -77.4775 H         1 UNK         0.0814 
    100 H100      -75.2500   22.5347  -78.0586 H         1 UNK         0.0814 
    101 H101      -75.5941   24.9874  -77.5281 H         1 UNK         0.3105 
    102 H102      -75.2515   28.3383  -78.8480 H         1 UNK         0.0547 
    103 H103      -77.4711   27.6416  -79.6773 H         1 UNK         0.0837 
    104 H104      -77.1352   25.9589  -79.2829 H         1 UNK         0.0837 
    105 H105      -76.2158   26.7705  -80.5445 H         1 UNK         0.0837 
    106 H106      -77.2045   27.1162  -77.1231 H         1 UNK         0.3020 
    107 H107      -75.9346   28.5030  -74.0859 H         1 UNK         0.1245 
    108 H108      -78.6634   28.6795  -74.4112 H         1 UNK         0.0781 
    109 H109      -78.2097   29.1849  -75.9967 H         1 UNK         0.0781 
    110 H110      -79.4802   30.7532  -72.9669 H         1 UNK         0.0836 
    111 H111      -78.2209   31.7300  -72.2480 H         1 UNK         0.0836 
    112 H112      -77.9459   26.6038  -74.4480 H         1 UNK         0.3022 
    113 H113      -76.0740   23.6180  -74.5701 H         1 UNK         0.0747 
    114 H114      -77.4077   23.1401  -72.4926 H         1 UNK         0.0793 
    115 H115      -75.9670   24.0944  -72.1732 H         1 UNK         0.0793 
    116 H116      -77.5339   24.8754  -72.1983 H         1 UNK         0.0793 
    117 H117      -78.8762   24.1774  -74.3245 H         1 UNK         0.3047 
    118 H118      -79.4526   24.1517  -77.8982 H         1 UNK         0.0822 
    119 H119      -81.1384   22.5854  -77.0233 H         1 UNK         0.0807 
    120 H120      -80.3842   22.5824  -75.4319 H         1 UNK         0.0807 
    121 H121      -79.5425   21.8854  -76.8110 H         1 UNK         0.0807 
    122 H122      -81.3199   24.8711  -75.9481 H         1 UNK         0.2946 
    123 H123      -80.8787   28.3885  -75.9428 H         1 UNK         0.1144 
    124 H124      -82.9718   26.6004  -77.2848 H         1 UNK         0.0793 
    125 H125      -82.0391   27.8678  -78.0631 H         1 UNK         0.0793 
    126 H126      -83.1978   28.2832  -76.8110 H         1 UNK         0.0793 
    127 H127      -81.6986   27.7784  -74.0105 H         1 UNK         0.2896 
@<TRIPOS>BOND
     1    1    2 1    
     2    1   67 1    
     3    1   68 1    
     4    1   69 1    
     5    2    3 2    
     6    2    4 am   BACKBONE|DICT|INTERRES
     7    4    5 1    
     8    4   70 1    
     9    5    6 1    
    10    5   65 1    
    11    5   71 1    
    12    6    7 1    
    13    6   72 1    
    14    6   73 1    
    15    7    8 1    
    16    8    9 1    
    17    8   74 1    
    18    8   75 1    
    19    9   10 ar   
    20    9   14 ar   
    21   10   11 ar   
    22   10   76 1    
    23   11   12 ar   
    24   11   48 1    
    25   12   13 ar   
    26   12   77 1    
    27   13   14 ar   
    28   13   15 1    
    29   14   78 1    
    30   15   16 1    
    31   15   79 1    
    32   15   80 1    
    33   16   17 1    
    34   17   18 1    
    35   17   81 1    
    36   17   82 1    
    37   18   19 1    
    38   18   22 1    
    39   18   83 1    
    40   19   20 am   BACKBONE|DICT|INTERRES
    41   19   21 2    
    42   20   84 1    
    43   20   85 1    
    44   22   23 am   BACKBONE|DICT|INTERRES
    45   22   86 1    
    46   23   24 2    
    47   23   25 1    
    48   25   26 1    
    49   25   27 1    
    50   25   87 1    
    51   26   88 1    
    52   26   89 1    
    53   26   90 1    
    54   27   28 am   BACKBONE|DICT|INTERRES
    55   27   91 1    
    56   28   29 2    
    57   28   30 1    
    58   30   31 1    
    59   30   32 1    
    60   30   92 1    
    61   31   93 1    
    62   31   94 1    
    63   31   95 1    
    64   32   33 am   BACKBONE|DICT|INTERRES
    65   32   96 1    
    66   33   34 2    
    67   33   35 1    
    68   35   36 1    
    69   35   37 1    
    70   35   97 1    
    71   36   98 1    
    72   36   99 1    
    73   36  100 1    
    74   37   38 am   BACKBONE|DICT|INTERRES
    75   37  101 1    
    76   38   39 2    
    77   38   40 1    
    78   40   41 1    
    79   40   42 1    
    80   40  102 1    
    81   41  103 1    
    82   41  104 1    
    83   41  105 1    
    84   42   43 am   BACKBONE|DICT|INTERRES
    85   42  106 1    
    86   43   44 2    
    87   43   45 1    
    88   45   46 1    
    89   45   49 1    
    90   45  107 1    
    91   46   47 1    
    92   46  108 1    
    93   46  109 1    
    94   47   48 1    
    95   48  110 1    
    96   48  111 1    
    97   49   50 am   BACKBONE|DICT|INTERRES
    98   49  112 1    
    99   50   51 2    
   100   50   52 1    
   101   52   53 1    
   102   52   54 1    
   103   52  113 1    
   104   53  114 1    
   105   53  115 1    
   106   53  116 1    
   107   54   55 am   BACKBONE|DICT|INTERRES
   108   54  117 1    
   109   55   56 2    
   110   55   57 1    
   111   57   58 1    
   112   57   59 1    
   113   57  118 1    
   114   58  119 1    
   115   58  120 1    
   116   58  121 1    
   117   59   60 am   BACKBONE|DICT|INTERRES
   118   59  122 1    
   119   60   61 2    
   120   60   62 1    
   121   62   63 1    
   122   62   64 1    
   123   62  123 1    
   124   63  124 1    
   125   63  125 1    
   126   63  126 1    
   127   64   65 am   BACKBONE|DICT|INTERRES
   128   64  127 1    
   129   65   66 2    
@<TRIPOS>SUBSTRUCTURE
     1 UNK         1 GROUP             0       ****    0 ROOT    
