@<TRIPOS>MOLECULE
3R135
127   129    1
SMALL
USER_CHARGES


@<TRIPOS>ATOM
      1 CA        -80.4013   21.9846  -72.0764 C.3       0 UNK        -0.1998 
      2 C         -80.5412   23.4706  -72.3644 C.2       0 UNK         0.4909 
      3 O         -79.6105   24.0771  -72.8967 O.2       0 UNK        -0.5240 
      4 N         -81.7064   24.0553  -72.0479 N.am      1 UNK        -0.4739 
      5 CA        -82.0801   25.4783  -72.1632 C.3       1 UNK         0.0864 
      6 C6        -81.1690   26.4007  -71.3075 C.3       11 UNK        -0.0881 
      7 S7        -82.0548   27.8688  -70.6881 S.3       11 UNK        -0.2682 
      8 C8        -80.7835   28.6364  -69.6256 C.3       11 UNK         0.0289 
      9 C9        -79.5306   29.0861  -70.3750 C.ar      11 UNK        -0.0687 
     10 C10       -79.6140   29.6834  -71.6358 C.ar      11 UNK        -0.0823 
     11 C11       -78.4601   30.0731  -72.3202 C.ar      11 UNK        -0.0830 
     12 C12       -77.2124   29.9110  -71.7109 C.ar      11 UNK        -0.1021 
     13 C13       -77.1074   29.3412  -70.4330 C.ar      11 UNK        -0.0753 
     14 C14       -78.2744   28.9221  -69.7843 C.ar      11 UNK        -0.0933 
     15 C15       -75.7757   29.1456  -69.7004 C.3       11 UNK         0.0166 
     16 S16       -74.3314   30.0267  -70.3892 S.3       11 UNK        -0.2615 
     17 C17       -73.8055   28.8626  -71.6897 C.3       11 UNK        -0.0865 
     18 CA        -72.5248   29.3248  -72.4387 C.3       10 UNK         0.0862 
     19 C         -71.2274   28.8609  -71.7053 C.2       10 UNK         0.5551 
     20 N         -70.4004   27.9952  -72.2810 N.am      10 UNK        -0.7319 
     21 O         -70.9587   29.3026  -70.5912 O.2       10 UNK        -0.5018 
     22 N         -72.5988   28.9601  -73.8612 N.am      10 UNK        -0.4509 
     23 C         -71.8092   29.4420  -74.8293 C.2       10 UNK         0.4899 
     24 O         -70.9912   30.3473  -74.6568 O.2       10 UNK        -0.4839 
     25 CA        -71.9513   28.7816  -76.2170 C.3       9 UNK         0.0222 
     26 CB        -70.7411   29.0531  -77.1352 C.3       9 UNK        -0.1966 
     27 N         -72.2290   27.3392  -76.1486 N.am      9 UNK        -0.4218 
     28 C         -71.4921   26.3986  -75.5353 C.2       9 UNK         0.5020 
     29 O         -70.4444   26.6330  -74.9309 O.2       9 UNK        -0.5274 
     30 CA        -72.0198   24.9534  -75.5612 C.3       8 UNK         0.0270 
     31 CB        -72.6024   24.5721  -74.1916 C.3       8 UNK        -0.1976 
     32 N         -73.0119   24.7095  -76.6163 N.am      8 UNK        -0.4313 
     33 C         -72.6765   24.5085  -77.8991 C.2       8 UNK         0.5041 
     34 O         -71.5191   24.5523  -78.3188 O.2       8 UNK        -0.5577 
     35 CA        -73.8110   24.2041  -78.8812 C.3       7 UNK         0.0284 
     36 CB        -74.3378   22.7709  -78.6879 C.3       7 UNK        -0.1958 
     37 N         -74.9096   25.1623  -78.7468 N.am      7 UNK        -0.4454 
     38 C         -75.1101   26.1859  -79.5865 C.2       7 UNK         0.5089 
     39 O         -74.3398   26.4878  -80.4990 O.2       7 UNK        -0.5125 
     40 CA        -76.4100   26.9845  -79.4213 C.3       6 UNK         0.0408 
     41 CB        -77.5914   26.2115  -80.0304 C.3       6 UNK        -0.1791 
     42 N         -76.7270   27.3307  -78.0375 N.am      6 UNK        -0.4762 
     43 C         -76.1658   28.3400  -77.3572 C.2       6 UNK         0.5007 
     44 O         -75.2033   28.9921  -77.7599 O.2       6 UNK        -0.5032 
     45 CA        -76.8312   28.6994  -76.0161 C.3       5 UNK         0.0783 
     46 C46       -78.1709   29.4514  -76.2683 C.3       11 UNK        -0.0857 
     47 S47       -79.3327   29.4658  -74.8615 S.3       11 UNK        -0.2512 
     48 C48       -78.5717   30.6630  -73.7194 C.3       11 UNK         0.0225 
     49 N         -76.9870   27.5059  -75.1886 N.am      5 UNK        -0.4615 
     50 C         -76.0038   26.9301  -74.4897 C.2       4 UNK         0.5053 
     51 O         -74.8417   27.3322  -74.4798 O.2       4 UNK        -0.5105 
     52 CA        -76.3808   25.6730  -73.6887 C.3       4 UNK         0.0263 
     53 CB        -77.0103   26.0713  -72.3445 C.3       4 UNK        -0.1981 
     54 N         -77.2900   24.7902  -74.4213 N.am      4 UNK        -0.4224 
     55 C         -77.0305   24.2616  -75.6273 C.2       3 UNK         0.4895 
     56 O         -75.9509   24.3803  -76.2097 O.2       3 UNK        -0.5091 
     57 CA        -78.1863   23.5334  -76.3326 C.3       3 UNK         0.0250 
     58 CB        -78.2187   22.0542  -75.9197 C.3       3 UNK        -0.1996 
     59 N         -79.4941   24.1458  -76.0746 N.am      3 UNK        -0.4254 
     60 C         -79.8433   25.3978  -76.4133 C.2       2 UNK         0.5004 
     61 O         -79.1125   26.1691  -77.0327 O.2       2 UNK        -0.5226 
     62 CA        -81.2053   25.8871  -75.9127 C.3       2 UNK         0.0269 
     63 CB        -82.3524   25.3088  -76.7620 C.3       2 UNK        -0.1926 
     64 N         -81.3433   25.5207  -74.5061 N.am      2 UNK        -0.4687 
     65 C         -82.2197   25.9934  -73.6184 C.2       1 UNK         0.5165 
     66 O         -83.1191   26.7844  -73.9059 O.2       1 UNK        -0.5079 
     67 H67       -80.2646   21.4333  -73.0060 H         1 UNK         0.0900 
     68 H68       -79.5313   21.8081  -71.4445 H         1 UNK         0.0900 
     69 H69       -81.2771   21.5829  -71.5673 H         1 UNK         0.0900 
     70 H70       -82.4351   23.4722  -71.6589 H         1 UNK         0.2959 
     71 H71       -83.0861   25.5192  -71.7415 H         1 UNK         0.1079 
     72 H72       -80.2810   26.7088  -71.8627 H         1 UNK         0.0837 
     73 H73       -80.8003   25.8593  -70.4347 H         1 UNK         0.0837 
     74 H74       -81.2209   29.5051  -69.1323 H         1 UNK         0.0685 
     75 H75       -80.5240   27.9302  -68.8353 H         1 UNK         0.0685 
     76 H76       -80.5789   29.8231  -72.1037 H         1 UNK         0.1434 
     77 H77       -76.3318   30.2390  -72.2416 H         1 UNK         0.1329 
     78 H78       -78.2033   28.4730  -68.8028 H         1 UNK         0.1335 
     79 H79       -75.8967   29.4874  -68.6712 H         1 UNK         0.0680 
     80 H80       -75.5541   28.0792  -69.6408 H         1 UNK         0.0680 
     81 H81       -73.6804   27.8633  -71.2678 H         1 UNK         0.1032 
     82 H82       -74.6391   28.7782  -72.3841 H         1 UNK         0.1032 
     83 H83       -72.5003   30.4162  -72.4219 H         1 UNK         0.0461 
     84 H84       -70.5758   27.6345  -73.2129 H         1 UNK         0.3453 
     85 H85       -69.5669   27.7156  -71.7895 H         1 UNK         0.3453 
     86 H86       -73.2788   28.2432  -74.1059 H         1 UNK         0.2984 
     87 H87       -72.8241   29.2417  -76.6791 H         1 UNK         0.0554 
     88 H88       -70.6025   30.1229  -77.2962 H         1 UNK         0.0847 
     89 H89       -70.8765   28.5948  -78.1148 H         1 UNK         0.0847 
     90 H90       -69.8155   28.6655  -76.7083 H         1 UNK         0.0847 
     91 H91       -73.1028   27.0435  -76.5605 H         1 UNK         0.3141 
     92 H92       -71.1641   24.2994  -75.7439 H         1 UNK         0.0743 
     93 H93       -73.3030   25.3218  -73.8317 H         1 UNK         0.0784 
     94 H94       -73.1112   23.6083  -74.2185 H         1 UNK         0.0784 
     95 H95       -71.8096   24.5012  -73.4458 H         1 UNK         0.0784 
     96 H96       -73.9898   24.6405  -76.3454 H         1 UNK         0.3213 
     97 H97       -73.3926   24.2560  -79.8891 H         1 UNK         0.0855 
     98 H98       -74.7433   22.6079  -77.6896 H         1 UNK         0.0814 
     99 H99       -73.5391   22.0426  -78.8340 H         1 UNK         0.0814 
    100 H100      -75.1222   22.5384  -79.4082 H         1 UNK         0.0814 
    101 H101      -75.5499   25.0134  -77.9721 H         1 UNK         0.3105 
    102 H102      -76.2994   27.9135  -79.9853 H         1 UNK         0.0547 
    103 H103      -77.3974   25.9565  -81.0732 H         1 UNK         0.0837 
    104 H104      -77.7851   25.2805  -79.4963 H         1 UNK         0.0837 
    105 H105      -78.5062   26.8039  -80.0067 H         1 UNK         0.0837 
    106 H106      -77.5339   26.8625  -77.6258 H         1 UNK         0.3020 
    107 H107      -76.1584   29.3810  -75.4903 H         1 UNK         0.1245 
    108 H108      -78.7233   28.9976  -77.0939 H         1 UNK         0.0781 
    109 H109      -77.9742   30.4795  -76.5778 H         1 UNK         0.0781 
    110 H110      -79.1839   31.5652  -73.6858 H         1 UNK         0.0836 
    111 H111      -77.5924   30.9685  -74.0898 H         1 UNK         0.0836 
    112 H112      -77.9089   27.0947  -75.1759 H         1 UNK         0.3022 
    113 H113      -75.4744   25.1049  -73.4846 H         1 UNK         0.0747 
    114 H114      -77.2552   25.1957  -71.7432 H         1 UNK         0.0793 
    115 H115      -76.3240   26.6847  -71.7598 H         1 UNK         0.0793 
    116 H116      -77.9249   26.6498  -72.4814 H         1 UNK         0.0793 
    117 H117      -78.1814   24.5857  -73.9747 H         1 UNK         0.3047 
    118 H118      -78.0007   23.5877  -77.4074 H         1 UNK         0.0822 
    119 H119      -78.9830   21.5045  -76.4692 H         1 UNK         0.0807 
    120 H120      -78.4189   21.9365  -74.8539 H         1 UNK         0.0807 
    121 H121      -77.2625   21.5714  -76.1272 H         1 UNK         0.0807 
    122 H122      -80.1653   23.5767  -75.5804 H         1 UNK         0.2946 
    123 H123      -81.2172   26.9770  -75.9897 H         1 UNK         0.1144 
    124 H124      -83.3153   25.7271  -76.4690 H         1 UNK         0.0793 
    125 H125      -82.4183   24.2242  -76.6710 H         1 UNK         0.0793 
    126 H126      -82.2097   25.5417  -77.8182 H         1 UNK         0.0793 
    127 H127      -80.6110   24.9283  -74.1196 H         1 UNK         0.2896 
@<TRIPOS>BOND
     1    1    2 1    
     2    1   67 1    
     3    1   68 1    
     4    1   69 1    
     5    2    3 2    
     6    2    4 am   BACKBONE|DICT|INTERRES
     7    4    5 1    
     8    4   70 1    
     9    5    6 1    
    10    5   65 1    
    11    5   71 1    
    12    6    7 1    
    13    6   72 1    
    14    6   73 1    
    15    7    8 1    
    16    8    9 1    
    17    8   74 1    
    18    8   75 1    
    19    9   10 ar   
    20    9   14 ar   
    21   10   11 ar   
    22   10   76 1    
    23   11   12 ar   
    24   11   48 1    
    25   12   13 ar   
    26   12   77 1    
    27   13   14 ar   
    28   13   15 1    
    29   14   78 1    
    30   15   16 1    
    31   15   79 1    
    32   15   80 1    
    33   16   17 1    
    34   17   18 1    
    35   17   81 1    
    36   17   82 1    
    37   18   19 1    
    38   18   22 1    
    39   18   83 1    
    40   19   20 am   BACKBONE|DICT|INTERRES
    41   19   21 2    
    42   20   84 1    
    43   20   85 1    
    44   22   23 am   BACKBONE|DICT|INTERRES
    45   22   86 1    
    46   23   24 2    
    47   23   25 1    
    48   25   26 1    
    49   25   27 1    
    50   25   87 1    
    51   26   88 1    
    52   26   89 1    
    53   26   90 1    
    54   27   28 am   BACKBONE|DICT|INTERRES
    55   27   91 1    
    56   28   29 2    
    57   28   30 1    
    58   30   31 1    
    59   30   32 1    
    60   30   92 1    
    61   31   93 1    
    62   31   94 1    
    63   31   95 1    
    64   32   33 am   BACKBONE|DICT|INTERRES
    65   32   96 1    
    66   33   34 2    
    67   33   35 1    
    68   35   36 1    
    69   35   37 1    
    70   35   97 1    
    71   36   98 1    
    72   36   99 1    
    73   36  100 1    
    74   37   38 am   BACKBONE|DICT|INTERRES
    75   37  101 1    
    76   38   39 2    
    77   38   40 1    
    78   40   41 1    
    79   40   42 1    
    80   40  102 1    
    81   41  103 1    
    82   41  104 1    
    83   41  105 1    
    84   42   43 am   BACKBONE|DICT|INTERRES
    85   42  106 1    
    86   43   44 2    
    87   43   45 1    
    88   45   46 1    
    89   45   49 1    
    90   45  107 1    
    91   46   47 1    
    92   46  108 1    
    93   46  109 1    
    94   47   48 1    
    95   48  110 1    
    96   48  111 1    
    97   49   50 am   BACKBONE|DICT|INTERRES
    98   49  112 1    
    99   50   51 2    
   100   50   52 1    
   101   52   53 1    
   102   52   54 1    
   103   52  113 1    
   104   53  114 1    
   105   53  115 1    
   106   53  116 1    
   107   54   55 am   BACKBONE|DICT|INTERRES
   108   54  117 1    
   109   55   56 2    
   110   55   57 1    
   111   57   58 1    
   112   57   59 1    
   113   57  118 1    
   114   58  119 1    
   115   58  120 1    
   116   58  121 1    
   117   59   60 am   BACKBONE|DICT|INTERRES
   118   59  122 1    
   119   60   61 2    
   120   60   62 1    
   121   62   63 1    
   122   62   64 1    
   123   62  123 1    
   124   63  124 1    
   125   63  125 1    
   126   63  126 1    
   127   64   65 am   BACKBONE|DICT|INTERRES
   128   64  127 1    
   129   65   66 2    
@<TRIPOS>SUBSTRUCTURE
     1 UNK         1 GROUP             0       ****    0 ROOT    
