@<TRIPOS>MOLECULE
3R135
127   129    1
SMALL
USER_CHARGES


@<TRIPOS>ATOM
      1 CA        -84.1150   24.4627  -74.4282 C.3       0 UNK        -0.1998 
      2 C         -83.4369   25.8239  -74.4141 C.2       0 UNK         0.4909 
      3 O         -83.2433   26.4234  -75.4722 O.2       0 UNK        -0.5240 
      4 N         -83.0751   26.3215  -73.2248 N.am      1 UNK        -0.4739 
      5 CA        -82.3447   27.5792  -73.0375 C.3       1 UNK         0.0864 
      6 C6        -82.3864   28.0720  -71.5687 C.3       11 UNK        -0.0881 
      7 S7        -81.8482   26.8377  -70.3320 S.3       11 UNK        -0.2682 
      8 C8        -80.6674   27.7968  -69.3319 C.3       11 UNK         0.0289 
      9 C9        -79.2948   27.8919  -69.9835 C.ar      11 UNK        -0.0687 
     10 C10       -78.4239   26.8007  -69.9278 C.ar      11 UNK        -0.0823 
     11 C11       -77.1382   26.8909  -70.4661 C.ar      11 UNK        -0.0830 
     12 C12       -76.7254   28.0839  -71.0641 C.ar      11 UNK        -0.1021 
     13 C13       -77.5888   29.1835  -71.1427 C.ar      11 UNK        -0.0753 
     14 C14       -78.8738   29.0766  -70.5970 C.ar      11 UNK        -0.0933 
     15 C15       -77.1518   30.5083  -71.7683 C.3       11 UNK         0.0166 
     16 S16       -76.0579   30.3351  -73.2208 S.3       11 UNK        -0.2615 
     17 C17       -74.3936   30.5309  -72.4907 C.3       11 UNK        -0.0865 
     18 CA        -73.3440   30.9602  -73.5499 C.3       10 UNK         0.0862 
     19 C         -71.9739   31.3039  -72.8908 C.2       10 UNK         0.5551 
     20 N         -70.8587   30.7040  -73.2923 N.am      10 UNK        -0.7319 
     21 O         -71.9212   32.1439  -71.9958 O.2       10 UNK        -0.5018 
     22 N         -73.2613   29.9826  -74.6461 N.am      10 UNK        -0.4509 
     23 C         -72.8525   30.2515  -75.8910 C.2       10 UNK         0.4899 
     24 O         -72.5550   31.3792  -76.2884 O.2       10 UNK        -0.4839 
     25 CA        -72.7472   29.0393  -76.8373 C.3       9 UNK         0.0222 
     26 CB        -71.9360   29.3432  -78.1142 C.3       9 UNK        -0.1966 
     27 N         -72.2288   27.8368  -76.1713 N.am      9 UNK        -0.4218 
     28 C         -71.0506   27.6936  -75.5419 C.2       9 UNK         0.5020 
     29 O         -70.2324   28.6019  -75.3923 O.2       9 UNK        -0.5274 
     30 CA        -70.7385   26.3051  -74.9623 C.3       8 UNK         0.0270 
     31 CB        -71.2598   26.1985  -73.5189 C.3       8 UNK        -0.1976 
     32 N         -71.3263   25.2399  -75.7782 N.am      8 UNK        -0.4313 
     33 C         -70.7236   24.6656  -76.8293 C.2       8 UNK         0.5041 
     34 O         -69.5603   24.8959  -77.1623 O.2       8 UNK        -0.5577 
     35 CA        -71.5562   23.6682  -77.6583 C.3       7 UNK         0.0284 
     36 CB        -71.3855   22.2407  -77.1138 C.3       7 UNK        -0.1958 
     37 N         -72.9817   24.0059  -77.6991 N.am      7 UNK        -0.4454 
     38 C         -73.4953   25.0673  -78.3374 C.2       7 UNK         0.5089 
     39 O         -72.8352   25.8168  -79.0562 O.2       7 UNK        -0.5125 
     40 CA        -74.9903   25.3688  -78.1136 C.3       6 UNK         0.0408 
     41 CB        -75.8243   24.8622  -79.3002 C.3       6 UNK        -0.1791 
     42 N         -75.5510   24.8353  -76.8646 N.am      6 UNK        -0.4762 
     43 C         -75.1318   25.1403  -75.6256 C.2       6 UNK         0.5007 
     44 O         -74.1505   25.8542  -75.4104 O.2       6 UNK        -0.5032 
     45 CA        -75.9140   24.5313  -74.4444 C.3       5 UNK         0.0783 
     46 C46       -75.7610   25.3585  -73.1425 C.3       11 UNK        -0.0857 
     47 S47       -76.4878   24.5012  -71.7057 S.3       11 UNK        -0.2512 
     48 C48       -76.1879   25.7063  -70.3779 C.3       11 UNK         0.0225 
     49 N         -77.3204   24.3698  -74.8165 N.am      5 UNK        -0.4615 
     50 C         -77.9915   23.2126  -74.8634 C.2       4 UNK         0.5053 
     51 O         -77.4816   22.1160  -74.6329 O.2       4 UNK        -0.5105 
     52 CA        -79.4831   23.2793  -75.2401 C.3       4 UNK         0.0263 
     53 CB        -80.3613   23.0733  -73.9949 C.3       4 UNK        -0.1981 
     54 N         -79.8433   24.5417  -75.8938 N.am      4 UNK        -0.4224 
     55 C         -79.5572   24.8234  -77.1749 C.2       3 UNK         0.4895 
     56 O         -79.0398   24.0149  -77.9458 O.2       3 UNK        -0.5091 
     57 CA        -79.8616   26.2430  -77.6874 C.3       3 UNK         0.0250 
     58 CB        -81.1854   26.2630  -78.4676 C.3       3 UNK        -0.1996 
     59 N         -79.9010   27.2587  -76.6323 N.am      3 UNK        -0.4254 
     60 C         -78.8392   27.6546  -75.9138 C.2       2 UNK         0.5004 
     61 O         -77.7038   27.2120  -76.0767 O.2       2 UNK        -0.5226 
     62 CA        -79.0915   28.6814  -74.7950 C.3       2 UNK         0.0269 
     63 CB        -78.8959   30.1076  -75.3334 C.3       2 UNK        -0.1926 
     64 N         -80.4164   28.5813  -74.1719 N.am      2 UNK        -0.4687 
     65 C         -80.9076   27.4788  -73.5885 C.2       1 UNK         0.5165 
     66 O         -80.2894   26.4144  -73.5155 O.2       1 UNK        -0.5079 
     67 H67       -85.1652   24.5707  -74.6972 H         1 UNK         0.0900 
     68 H68       -83.6407   23.8142  -75.1642 H         1 UNK         0.0900 
     69 H69       -84.0589   23.9711  -73.4571 H         1 UNK         0.0900 
     70 H70       -83.2156   25.7787  -72.3843 H         1 UNK         0.2959 
     71 H71       -82.8634   28.3297  -73.6390 H         1 UNK         0.1079 
     72 H72       -83.4102   28.3530  -71.3171 H         1 UNK         0.0837 
     73 H73       -81.8043   28.9888  -71.4609 H         1 UNK         0.0837 
     74 H74       -80.5653   27.3120  -68.3599 H         1 UNK         0.0685 
     75 H75       -81.0746   28.7887  -69.1293 H         1 UNK         0.0685 
     76 H76       -78.7459   25.8817  -69.4572 H         1 UNK         0.1434 
     77 H77       -75.7270   28.1466  -71.4684 H         1 UNK         0.1329 
     78 H78       -79.5430   29.9253  -70.6327 H         1 UNK         0.1335 
     79 H79       -78.0329   31.0623  -72.0955 H         1 UNK         0.0680 
     80 H80       -76.6746   31.1236  -71.0050 H         1 UNK         0.0680 
     81 H81       -74.0903   29.5993  -72.0121 H         1 UNK         0.1032 
     82 H82       -74.4512   31.2777  -71.6966 H         1 UNK         0.1032 
     83 H83       -73.6952   31.9003  -73.9800 H         1 UNK         0.0461 
     84 H84       -70.8629   30.0322  -74.0508 H         1 UNK         0.3453 
     85 H85       -69.9869   30.9495  -72.8511 H         1 UNK         0.3453 
     86 H86       -73.4914   29.0292  -74.4101 H         1 UNK         0.2984 
     87 H87       -73.7672   28.8007  -77.1424 H         1 UNK         0.0554 
     88 H88       -72.3872   30.1584  -78.6810 H         1 UNK         0.0847 
     89 H89       -71.8959   28.4757  -78.7732 H         1 UNK         0.0847 
     90 H90       -70.9113   29.6354  -77.8822 H         1 UNK         0.0847 
     91 H91       -72.8737   27.0520  -76.1302 H         1 UNK         0.3141 
     92 H92       -69.6528   26.1884  -74.9384 H         1 UNK         0.0743 
     93 H93       -71.0175   25.2300  -73.0812 H         1 UNK         0.0784 
     94 H94       -70.8065   26.9624  -72.8854 H         1 UNK         0.0784 
     95 H95       -72.3405   26.3307  -73.4629 H         1 UNK         0.0784 
     96 H96       -72.3035   25.0341  -75.6058 H         1 UNK         0.3213 
     97 H97       -71.1739   23.6915  -78.6814 H         1 UNK         0.0855 
     98 H98       -71.7643   22.1464  -76.0953 H         1 UNK         0.0814 
     99 H99       -70.3329   21.9544  -77.0971 H         1 UNK         0.0814 
    100 H100      -71.9067   21.5130  -77.7361 H         1 UNK         0.0814 
    101 H101      -73.6088   23.4311  -77.1557 H         1 UNK         0.3105 
    102 H102      -75.0916   26.4553  -78.0699 H         1 UNK         0.0547 
    103 H103      -75.8188   23.7735  -79.3632 H         1 UNK         0.0837 
    104 H104      -75.4364   25.2463  -80.2448 H         1 UNK         0.0837 
    105 H105      -76.8611   25.1895  -79.2238 H         1 UNK         0.0837 
    106 H106      -76.3702   24.2503  -76.9538 H         1 UNK         0.3020 
    107 H107      -75.4578   23.5540  -74.2718 H         1 UNK         0.1245 
    108 H108      -76.2334   26.3356  -73.2587 H         1 UNK         0.0781 
    109 H109      -74.7097   25.5431  -72.9150 H         1 UNK         0.0781 
    110 H110      -75.1488   26.0379  -70.4091 H         1 UNK         0.0836 
    111 H111      -76.3165   25.2076  -69.4161 H         1 UNK         0.0836 
    112 H112      -77.8002   25.2270  -75.0628 H         1 UNK         0.3022 
    113 H113      -79.6845   22.4587  -75.9322 H         1 UNK         0.0747 
    114 H114      -81.4210   23.1062  -74.2439 H         1 UNK         0.0793 
    115 H115      -80.1663   22.1014  -73.5399 H         1 UNK         0.0793 
    116 H116      -80.1689   23.8289  -73.2326 H         1 UNK         0.0793 
    117 H117      -80.2238   25.2679  -75.2959 H         1 UNK         0.3047 
    118 H118      -79.0583   26.5147  -78.3758 H         1 UNK         0.0822 
    119 H119      -81.3801   27.2459  -78.8970 H         1 UNK         0.0807 
    120 H120      -82.0323   25.9984  -77.8339 H         1 UNK         0.0807 
    121 H121      -81.1621   25.5495  -79.2926 H         1 UNK         0.0807 
    122 H122      -80.8058   27.6502  -76.4103 H         1 UNK         0.2946 
    123 H123      -78.3489   28.4940  -74.0158 H         1 UNK         0.1144 
    124 H124      -78.9706   30.8473  -74.5364 H         1 UNK         0.0793 
    125 H125      -79.6333   30.3580  -76.0970 H         1 UNK         0.0793 
    126 H126      -77.9085   30.2208  -75.7839 H         1 UNK         0.0793 
    127 H127      -80.9862   29.4148  -74.1999 H         1 UNK         0.2896 
@<TRIPOS>BOND
     1    1    2 1    
     2    1   67 1    
     3    1   68 1    
     4    1   69 1    
     5    2    3 2    
     6    2    4 am   BACKBONE|DICT|INTERRES
     7    4    5 1    
     8    4   70 1    
     9    5    6 1    
    10    5   65 1    
    11    5   71 1    
    12    6    7 1    
    13    6   72 1    
    14    6   73 1    
    15    7    8 1    
    16    8    9 1    
    17    8   74 1    
    18    8   75 1    
    19    9   10 ar   
    20    9   14 ar   
    21   10   11 ar   
    22   10   76 1    
    23   11   12 ar   
    24   11   48 1    
    25   12   13 ar   
    26   12   77 1    
    27   13   14 ar   
    28   13   15 1    
    29   14   78 1    
    30   15   16 1    
    31   15   79 1    
    32   15   80 1    
    33   16   17 1    
    34   17   18 1    
    35   17   81 1    
    36   17   82 1    
    37   18   19 1    
    38   18   22 1    
    39   18   83 1    
    40   19   20 am   BACKBONE|DICT|INTERRES
    41   19   21 2    
    42   20   84 1    
    43   20   85 1    
    44   22   23 am   BACKBONE|DICT|INTERRES
    45   22   86 1    
    46   23   24 2    
    47   23   25 1    
    48   25   26 1    
    49   25   27 1    
    50   25   87 1    
    51   26   88 1    
    52   26   89 1    
    53   26   90 1    
    54   27   28 am   BACKBONE|DICT|INTERRES
    55   27   91 1    
    56   28   29 2    
    57   28   30 1    
    58   30   31 1    
    59   30   32 1    
    60   30   92 1    
    61   31   93 1    
    62   31   94 1    
    63   31   95 1    
    64   32   33 am   BACKBONE|DICT|INTERRES
    65   32   96 1    
    66   33   34 2    
    67   33   35 1    
    68   35   36 1    
    69   35   37 1    
    70   35   97 1    
    71   36   98 1    
    72   36   99 1    
    73   36  100 1    
    74   37   38 am   BACKBONE|DICT|INTERRES
    75   37  101 1    
    76   38   39 2    
    77   38   40 1    
    78   40   41 1    
    79   40   42 1    
    80   40  102 1    
    81   41  103 1    
    82   41  104 1    
    83   41  105 1    
    84   42   43 am   BACKBONE|DICT|INTERRES
    85   42  106 1    
    86   43   44 2    
    87   43   45 1    
    88   45   46 1    
    89   45   49 1    
    90   45  107 1    
    91   46   47 1    
    92   46  108 1    
    93   46  109 1    
    94   47   48 1    
    95   48  110 1    
    96   48  111 1    
    97   49   50 am   BACKBONE|DICT|INTERRES
    98   49  112 1    
    99   50   51 2    
   100   50   52 1    
   101   52   53 1    
   102   52   54 1    
   103   52  113 1    
   104   53  114 1    
   105   53  115 1    
   106   53  116 1    
   107   54   55 am   BACKBONE|DICT|INTERRES
   108   54  117 1    
   109   55   56 2    
   110   55   57 1    
   111   57   58 1    
   112   57   59 1    
   113   57  118 1    
   114   58  119 1    
   115   58  120 1    
   116   58  121 1    
   117   59   60 am   BACKBONE|DICT|INTERRES
   118   59  122 1    
   119   60   61 2    
   120   60   62 1    
   121   62   63 1    
   122   62   64 1    
   123   62  123 1    
   124   63  124 1    
   125   63  125 1    
   126   63  126 1    
   127   64   65 am   BACKBONE|DICT|INTERRES
   128   64  127 1    
   129   65   66 2    
@<TRIPOS>SUBSTRUCTURE
     1 UNK         1 GROUP             0       ****    0 ROOT    
