@<TRIPOS>MOLECULE
3R135
127   129    1
SMALL
USER_CHARGES


@<TRIPOS>ATOM
      1 CA        -82.0449   27.8077  -70.2092 C.3       0 UNK        -0.1998 
      2 C         -81.6745   27.3922  -71.6244 C.2       0 UNK         0.4909 
      3 O         -80.6784   26.6944  -71.8084 O.2       0 UNK        -0.5240 
      4 N         -82.4765   27.8063  -72.6158 N.am      1 UNK        -0.4739 
      5 CA        -82.3313   27.6167  -74.0724 C.3       1 UNK         0.0864 
      6 C6        -81.0457   28.2398  -74.6827 C.3       11 UNK        -0.0881 
      7 S7        -80.7664   29.9866  -74.2321 S.3       11 UNK        -0.2682 
      8 C8        -78.9820   30.1469  -74.5799 C.3       11 UNK         0.0289 
      9 C9        -78.1105   30.0106  -73.3349 C.ar      11 UNK        -0.0687 
     10 C10       -78.1607   28.8613  -72.5410 C.ar      11 UNK        -0.0823 
     11 C11       -77.3513   28.7314  -71.4101 C.ar      11 UNK        -0.0830 
     12 C12       -76.4674   29.7628  -71.0793 C.ar      11 UNK        -0.1021 
     13 C13       -76.3922   30.9134  -71.8701 C.ar      11 UNK        -0.0753 
     14 C14       -77.2242   31.0344  -72.9883 C.ar      11 UNK        -0.0933 
     15 C15       -75.4332   32.0403  -71.5138 C.3       11 UNK         0.0166 
     16 S16       -74.1676   32.2736  -72.8037 S.3       11 UNK        -0.2615 
     17 C17       -72.6634   31.5597  -72.0479 C.3       11 UNK        -0.0865 
     18 CA        -72.3750   30.0693  -72.4003 C.3       10 UNK         0.0862 
     19 C         -73.0674   29.0556  -71.4492 C.2       10 UNK         0.5551 
     20 N         -73.6964   27.9919  -71.9333 N.am      10 UNK        -0.7319 
     21 O         -73.0056   29.2185  -70.2329 O.2       10 UNK        -0.5018 
     22 N         -72.5277   29.7544  -73.8273 N.am      10 UNK        -0.4509 
     23 C         -71.6994   30.1532  -74.7963 C.2       10 UNK         0.4899 
     24 O         -70.7275   30.8899  -74.6154 O.2       10 UNK        -0.4839 
     25 CA        -72.0065   29.5953  -76.1978 C.3       9 UNK         0.0222 
     26 CB        -70.9906   30.0466  -77.2684 C.3       9 UNK        -0.1966 
     27 N         -72.1387   28.1331  -76.1904 N.am      9 UNK        -0.4218 
     28 C         -71.2207   27.2323  -75.7967 C.2       9 UNK         0.5020 
     29 O         -70.0972   27.5271  -75.3864 O.2       9 UNK        -0.5274 
     30 CA        -71.6047   25.7407  -75.8612 C.3       8 UNK         0.0270 
     31 CB        -71.8661   25.1936  -74.4476 C.3       8 UNK        -0.1976 
     32 N         -72.7632   25.4590  -76.7128 N.am      8 UNK        -0.4313 
     33 C         -72.7834   25.5998  -78.0456 C.2       8 UNK         0.5041 
     34 O         -71.7948   25.8969  -78.7176 O.2       8 UNK        -0.5577 
     35 CA        -74.1378   25.4132  -78.7486 C.3       7 UNK         0.0284 
     36 CB        -74.3167   23.9486  -79.1782 C.3       7 UNK        -0.1958 
     37 N         -75.2886   25.8441  -77.9439 N.am      7 UNK        -0.4454 
     38 C         -75.5084   27.1022  -77.5298 C.2       7 UNK         0.5089 
     39 O         -74.7500   28.0417  -77.7693 O.2       7 UNK        -0.5125 
     40 CA        -76.7575   27.3501  -76.6644 C.3       6 UNK         0.0408 
     41 CB        -78.0388   27.3008  -77.5117 C.3       6 UNK        -0.1791 
     42 N         -76.8635   26.4041  -75.5541 N.am      6 UNK        -0.4762 
     43 C         -75.9775   26.3034  -74.5506 C.2       6 UNK         0.5007 
     44 O         -75.0095   27.0555  -74.4078 O.2       6 UNK        -0.5032 
     45 CA        -76.1641   25.1046  -73.5981 C.3       5 UNK         0.0783 
     46 C46       -77.1464   25.4034  -72.4363 C.3       11 UNK        -0.0857 
     47 S47       -76.3101   26.1737  -71.0090 S.3       11 UNK        -0.2512 
     48 C48       -77.4613   27.4979  -70.5234 C.3       11 UNK         0.0225 
     49 N         -76.5521   23.8971  -74.3351 N.am      5 UNK        -0.4615 
     50 C         -75.7377   23.2185  -75.1546 C.2       4 UNK         0.5053 
     51 O         -74.5730   23.5422  -75.3818 O.2       4 UNK        -0.5105 
     52 CA        -76.3277   21.9850  -75.8578 C.3       4 UNK         0.0263 
     53 CB        -76.2928   20.7632  -74.9261 C.3       4 UNK        -0.1981 
     54 N         -77.6945   22.1985  -76.3389 N.am      4 UNK        -0.4224 
     55 C         -78.0253   23.0636  -77.3079 C.2       3 UNK         0.4895 
     56 O         -77.2137   23.7662  -77.9065 O.2       3 UNK        -0.5091 
     57 CA        -79.5185   23.2030  -77.6405 C.3       3 UNK         0.0250 
     58 CB        -79.9535   22.1164  -78.6368 C.3       3 UNK        -0.1996 
     59 N         -80.3994   23.1803  -76.4680 N.am      3 UNK        -0.4254 
     60 C         -80.3219   24.0313  -75.4361 C.2       2 UNK         0.5004 
     61 O         -79.4267   24.8721  -75.2980 O.2       2 UNK        -0.5226 
     62 CA        -81.4141   23.9053  -74.3623 C.3       2 UNK         0.0269 
     63 CB        -80.9155   23.0466  -73.1893 C.3       2 UNK        -0.1926 
     64 N         -81.7612   25.2330  -73.8653 N.am      2 UNK        -0.4687 
     65 C         -82.4489   26.1528  -74.5501 C.2       1 UNK         0.5165 
     66 O         -83.1160   25.8932  -75.5531 O.2       1 UNK        -0.5079 
     67 H67       -82.2291   26.9255  -69.5955 H         1 UNK         0.0900 
     68 H68       -82.9386   28.4322  -70.1863 H         1 UNK         0.0900 
     69 H69       -81.2257   28.3707  -69.7613 H         1 UNK         0.0900 
     70 H70       -83.2888   28.3508  -72.3602 H         1 UNK         0.2959 
     71 H71       -83.1813   28.1433  -74.5102 H         1 UNK         0.1079 
     72 H72       -81.0976   28.1966  -75.7726 H         1 UNK         0.0837 
     73 H73       -80.1719   27.6459  -74.4140 H         1 UNK         0.0837 
     74 H74       -78.8212   31.1192  -75.0485 H         1 UNK         0.0685 
     75 H75       -78.6745   29.4056  -75.3174 H         1 UNK         0.0685 
     76 H76       -78.8428   28.0682  -72.7929 H         1 UNK         0.1434 
     77 H77       -75.8361   29.6670  -70.2062 H         1 UNK         0.1329 
     78 H78       -77.1672   31.9272  -73.5960 H         1 UNK         0.1335 
     79 H79       -76.0019   32.9658  -71.4126 H         1 UNK         0.0680 
     80 H80       -74.9637   31.8648  -70.5449 H         1 UNK         0.0680 
     81 H81       -72.6723   31.7223  -70.9688 H         1 UNK         0.1032 
     82 H82       -71.8278   32.1632  -72.4051 H         1 UNK         0.1032 
     83 H83       -71.3179   29.9067  -72.1798 H         1 UNK         0.0461 
     84 H84       -73.8381   27.8281  -72.9198 H         1 UNK         0.3453 
     85 H85       -74.1480   27.3738  -71.2776 H         1 UNK         0.3453 
     86 H86       -73.3135   29.1671  -74.0661 H         1 UNK         0.2984 
     87 H87       -72.9826   29.9910  -76.4822 H         1 UNK         0.0554 
     88 H88       -71.2559   29.6602  -78.2526 H         1 UNK         0.0847 
     89 H89       -69.9796   29.7096  -77.0375 H         1 UNK         0.0847 
     90 H90       -70.9612   31.1342  -77.3438 H         1 UNK         0.0847 
     91 H91       -73.0308   27.7847  -76.5245 H         1 UNK         0.3141 
     92 H92       -70.7485   25.2065  -76.2782 H         1 UNK         0.0743 
     93 H93       -72.7314   25.6674  -73.9840 H         1 UNK         0.0784 
     94 H94       -72.0413   24.1179  -74.4645 H         1 UNK         0.0784 
     95 H95       -71.0105   25.3700  -73.7943 H         1 UNK         0.0784 
     96 H96       -73.5982   25.1148  -76.2482 H         1 UNK         0.3213 
     97 H97       -74.1221   26.0308  -79.6491 H         1 UNK         0.0855 
     98 H98       -74.3892   23.2834  -78.3171 H         1 UNK         0.0814 
     99 H99       -73.4735   23.6112  -79.7824 H         1 UNK         0.0814 
    100 H100      -75.2164   23.8189  -79.7797 H         1 UNK         0.0814 
    101 H101      -75.9863   25.1302  -77.7399 H         1 UNK         0.3105 
    102 H102      -76.6714   28.3508  -76.2360 H         1 UNK         0.0547 
    103 H103      -78.0054   28.0419  -78.3112 H         1 UNK         0.0837 
    104 H104      -78.1816   26.3253  -77.9767 H         1 UNK         0.0837 
    105 H105      -78.9225   27.5106  -76.9098 H         1 UNK         0.0837 
    106 H106      -77.6457   25.7550  -75.5753 H         1 UNK         0.3020 
    107 H107      -75.1812   24.8954  -73.1681 H         1 UNK         0.1245 
    108 H108      -77.9981   25.9963  -72.7705 H         1 UNK         0.0781 
    109 H109      -77.5776   24.4738  -72.0613 H         1 UNK         0.0781 
    110 H110      -78.4812   27.1139  -70.5203 H         1 UNK         0.0836 
    111 H111      -77.2483   27.7756  -69.4901 H         1 UNK         0.0836 
    112 H112      -77.5169   23.6100  -74.2587 H         1 UNK         0.3022 
    113 H113      -75.6989   21.7685  -76.7241 H         1 UNK         0.0747 
    114 H114      -76.6229   19.8614  -75.4422 H         1 UNK         0.0793 
    115 H115      -75.2794   20.5761  -74.5676 H         1 UNK         0.0793 
    116 H116      -76.9280   20.9011  -74.0501 H         1 UNK         0.0793 
    117 H117      -78.4293   21.6641  -75.8989 H         1 UNK         0.3047 
    118 H118      -79.6501   24.1747  -78.1213 H         1 UNK         0.0822 
    119 H119      -79.8895   21.1178  -78.2025 H         1 UNK         0.0807 
    120 H120      -79.3204   22.1264  -79.5255 H         1 UNK         0.0807 
    121 H121      -80.9791   22.2723  -78.9723 H         1 UNK         0.0807 
    122 H122      -81.1565   22.5120  -76.4904 H         1 UNK         0.2946 
    123 H123      -82.3048   23.4450  -74.7960 H         1 UNK         0.1144 
    124 H124      -81.6818   22.9454  -72.4205 H         1 UNK         0.0793 
    125 H125      -80.0298   23.4790  -72.7213 H         1 UNK         0.0793 
    126 H126      -80.6544   22.0408  -73.5210 H         1 UNK         0.0793 
    127 H127      -81.2221   25.5785  -73.0722 H         1 UNK         0.2896 
@<TRIPOS>BOND
     1    1    2 1    
     2    1   67 1    
     3    1   68 1    
     4    1   69 1    
     5    2    3 2    
     6    2    4 am   BACKBONE|DICT|INTERRES
     7    4    5 1    
     8    4   70 1    
     9    5    6 1    
    10    5   65 1    
    11    5   71 1    
    12    6    7 1    
    13    6   72 1    
    14    6   73 1    
    15    7    8 1    
    16    8    9 1    
    17    8   74 1    
    18    8   75 1    
    19    9   10 ar   
    20    9   14 ar   
    21   10   11 ar   
    22   10   76 1    
    23   11   12 ar   
    24   11   48 1    
    25   12   13 ar   
    26   12   77 1    
    27   13   14 ar   
    28   13   15 1    
    29   14   78 1    
    30   15   16 1    
    31   15   79 1    
    32   15   80 1    
    33   16   17 1    
    34   17   18 1    
    35   17   81 1    
    36   17   82 1    
    37   18   19 1    
    38   18   22 1    
    39   18   83 1    
    40   19   20 am   BACKBONE|DICT|INTERRES
    41   19   21 2    
    42   20   84 1    
    43   20   85 1    
    44   22   23 am   BACKBONE|DICT|INTERRES
    45   22   86 1    
    46   23   24 2    
    47   23   25 1    
    48   25   26 1    
    49   25   27 1    
    50   25   87 1    
    51   26   88 1    
    52   26   89 1    
    53   26   90 1    
    54   27   28 am   BACKBONE|DICT|INTERRES
    55   27   91 1    
    56   28   29 2    
    57   28   30 1    
    58   30   31 1    
    59   30   32 1    
    60   30   92 1    
    61   31   93 1    
    62   31   94 1    
    63   31   95 1    
    64   32   33 am   BACKBONE|DICT|INTERRES
    65   32   96 1    
    66   33   34 2    
    67   33   35 1    
    68   35   36 1    
    69   35   37 1    
    70   35   97 1    
    71   36   98 1    
    72   36   99 1    
    73   36  100 1    
    74   37   38 am   BACKBONE|DICT|INTERRES
    75   37  101 1    
    76   38   39 2    
    77   38   40 1    
    78   40   41 1    
    79   40   42 1    
    80   40  102 1    
    81   41  103 1    
    82   41  104 1    
    83   41  105 1    
    84   42   43 am   BACKBONE|DICT|INTERRES
    85   42  106 1    
    86   43   44 2    
    87   43   45 1    
    88   45   46 1    
    89   45   49 1    
    90   45  107 1    
    91   46   47 1    
    92   46  108 1    
    93   46  109 1    
    94   47   48 1    
    95   48  110 1    
    96   48  111 1    
    97   49   50 am   BACKBONE|DICT|INTERRES
    98   49  112 1    
    99   50   51 2    
   100   50   52 1    
   101   52   53 1    
   102   52   54 1    
   103   52  113 1    
   104   53  114 1    
   105   53  115 1    
   106   53  116 1    
   107   54   55 am   BACKBONE|DICT|INTERRES
   108   54  117 1    
   109   55   56 2    
   110   55   57 1    
   111   57   58 1    
   112   57   59 1    
   113   57  118 1    
   114   58  119 1    
   115   58  120 1    
   116   58  121 1    
   117   59   60 am   BACKBONE|DICT|INTERRES
   118   59  122 1    
   119   60   61 2    
   120   60   62 1    
   121   62   63 1    
   122   62   64 1    
   123   62  123 1    
   124   63  124 1    
   125   63  125 1    
   126   63  126 1    
   127   64   65 am   BACKBONE|DICT|INTERRES
   128   64  127 1    
   129   65   66 2    
@<TRIPOS>SUBSTRUCTURE
     1 UNK         1 GROUP             0       ****    0 ROOT    
