@<TRIPOS>MOLECULE
3R135
127   129    1
SMALL
USER_CHARGES


@<TRIPOS>ATOM
      1 CA        -83.7814   27.2151  -69.1197 C.3       0 UNK        -0.1998 
      2 C         -83.0039   27.3362  -70.4219 C.2       0 UNK         0.4909 
      3 O         -83.1838   28.3100  -71.1545 O.2       0 UNK        -0.5240 
      4 N         -82.1341   26.3606  -70.7104 N.am      1 UNK        -0.4739 
      5 CA        -81.3358   26.2895  -71.9382 C.3       1 UNK         0.0864 
      6 C6        -80.2192   25.2191  -71.8383 C.3       11 UNK        -0.0881 
      7 S7        -79.0065   25.5451  -70.5140 S.3       11 UNK        -0.2682 
      8 C8        -77.4744   25.8378  -71.4569 C.3       11 UNK         0.0289 
      9 C9        -77.3022   27.3057  -71.8181 C.ar      11 UNK        -0.0687 
     10 C10       -78.0059   27.8636  -72.8894 C.ar      11 UNK        -0.0823 
     11 C11       -77.8238   29.2063  -73.2356 C.ar      11 UNK        -0.0830 
     12 C12       -76.9404   29.9944  -72.4933 C.ar      11 UNK        -0.1021 
     13 C13       -76.2203   29.4455  -71.4296 C.ar      11 UNK        -0.0753 
     14 C14       -76.4117   28.1027  -71.0920 C.ar      11 UNK        -0.0933 
     15 C15       -75.2342   30.2966  -70.6437 C.3       11 UNK         0.0166 
     16 S16       -73.5730   30.2585  -71.3886 S.3       11 UNK        -0.2615 
     17 C17       -73.7038   31.5983  -72.6261 C.3       11 UNK        -0.0865 
     18 CA        -72.4898   31.7091  -73.5853 C.3       10 UNK         0.0862 
     19 C         -71.1959   32.1840  -72.8611 C.2       10 UNK         0.5551 
     20 N         -71.1174   33.4643  -72.5225 N.am      10 UNK        -0.7319 
     21 O         -70.2802   31.4123  -72.5816 O.2       10 UNK        -0.5018 
     22 N         -72.3273   30.4816  -74.3757 N.am      10 UNK        -0.4509 
     23 C         -71.5453   30.3505  -75.4545 C.2       10 UNK         0.4899 
     24 O         -70.9071   31.2831  -75.9457 O.2       10 UNK        -0.4839 
     25 CA        -71.5001   28.9711  -76.1443 C.3       9 UNK         0.0222 
     26 CB        -70.0728   28.5815  -76.5829 C.3       9 UNK        -0.1966 
     27 N         -72.1393   27.8786  -75.3986 N.am      9 UNK        -0.4218 
     28 C         -71.7480   27.3272  -74.2388 C.2       9 UNK         0.5020 
     29 O         -70.7826   27.7096  -73.5777 O.2       9 UNK        -0.5274 
     30 CA        -72.5743   26.1308  -73.7367 C.3       8 UNK         0.0270 
     31 CB        -73.8528   26.6104  -73.0298 C.3       8 UNK        -0.1976 
     32 N         -72.9264   25.1936  -74.8066 N.am      8 UNK        -0.4313 
     33 C         -72.0488   24.4611  -75.5090 C.2       8 UNK         0.5041 
     34 O         -70.8349   24.4532  -75.3011 O.2       8 UNK        -0.5577 
     35 CA        -72.6201   23.5966  -76.6434 C.3       7 UNK         0.0284 
     36 CB        -73.1905   22.2764  -76.0979 C.3       7 UNK        -0.1958 
     37 N         -73.6527   24.3129  -77.3940 N.am      7 UNK        -0.4454 
     38 C         -73.4010   25.1976  -78.3693 C.2       7 UNK         0.5089 
     39 O         -72.2724   25.4512  -78.7905 O.2       7 UNK        -0.5125 
     40 CA        -74.6106   25.9302  -78.9803 C.3       6 UNK         0.0408 
     41 CB        -75.1348   25.1680  -80.2074 C.3       6 UNK        -0.1791 
     42 N         -75.7105   26.1323  -78.0336 N.am      6 UNK        -0.4762 
     43 C         -75.6537   26.9382  -76.9615 C.2       6 UNK         0.5007 
     44 O         -74.6666   27.6115  -76.6666 O.2       6 UNK        -0.5032 
     45 CA        -76.8767   26.9273  -76.0193 C.3       5 UNK         0.0783 
     46 C46       -77.9588   27.9464  -76.4585 C.3       11 UNK        -0.0857 
     47 S47       -77.5901   29.6581  -75.9517 S.3       11 UNK        -0.2512 
     48 C48       -78.5620   29.8140  -74.4182 C.3       11 UNK         0.0225 
     49 N         -77.4603   25.5901  -75.8730 N.am      5 UNK        -0.4615 
     50 C         -76.8182   24.4861  -75.4688 C.2       4 UNK         0.5053 
     51 O         -75.6520   24.4896  -75.0793 O.2       4 UNK        -0.5105 
     52 CA        -77.5796   23.1500  -75.5522 C.3       4 UNK         0.0263 
     53 CB        -77.8333   22.5822  -74.1469 C.3       4 UNK        -0.1981 
     54 N         -78.8541   23.2391  -76.2736 N.am      4 UNK        -0.4224 
     55 C         -79.0082   23.4595  -77.5860 C.2       3 UNK         0.4895 
     56 O         -78.0667   23.5787  -78.3706 O.2       3 UNK        -0.5091 
     57 CA        -80.4506   23.6533  -78.0935 C.3       3 UNK         0.0250 
     58 CB        -81.2434   22.3312  -78.0649 C.3       3 UNK        -0.1996 
     59 N         -81.1777   24.7465  -77.4207 N.am      3 UNK        -0.4254 
     60 C         -81.5456   24.8355  -76.1329 C.2       2 UNK         0.5004 
     61 O         -81.3506   23.9409  -75.3068 O.2       2 UNK        -0.5226 
     62 CA        -82.1953   26.1640  -75.6985 C.3       2 UNK         0.0269 
     63 CB        -83.7230   26.1452  -75.9076 C.3       2 UNK        -0.1926 
     64 N         -81.8124   26.5267  -74.3233 N.am      2 UNK        -0.4687 
     65 C         -82.2168   25.9765  -73.1665 C.2       1 UNK         0.5165 
     66 O         -83.1721   25.2043  -73.0472 O.2       1 UNK        -0.5079 
     67 H67       -84.8513   27.1811  -69.3237 H         1 UNK         0.0900 
     68 H68       -83.5128   26.3151  -68.5668 H         1 UNK         0.0900 
     69 H69       -83.5826   28.0763  -68.4823 H         1 UNK         0.0900 
     70 H70       -82.0296   25.5804  -70.0779 H         1 UNK         0.2959 
     71 H71       -80.8721   27.2678  -72.0840 H         1 UNK         0.1079 
     72 H72       -79.6933   25.1312  -72.7901 H         1 UNK         0.0837 
     73 H73       -80.6541   24.2341  -71.6557 H         1 UNK         0.0837 
     74 H74       -76.6326   25.5042  -70.8482 H         1 UNK         0.0685 
     75 H75       -77.4462   25.2220  -72.3566 H         1 UNK         0.0685 
     76 H76       -78.6787   27.2465  -73.4655 H         1 UNK         0.1434 
     77 H77       -76.8044   31.0342  -72.7554 H         1 UNK         0.1329 
     78 H78       -75.8554   27.6749  -70.2692 H         1 UNK         0.1335 
     79 H79       -75.5890   31.3259  -70.5709 H         1 UNK         0.0680 
     80 H80       -75.1646   29.9282  -69.6190 H         1 UNK         0.0680 
     81 H81       -74.6014   31.4360  -73.2220 H         1 UNK         0.1032 
     82 H82       -73.8655   32.5428  -72.1034 H         1 UNK         0.1032 
     83 H83       -72.7330   32.4915  -74.3073 H         1 UNK         0.0461 
     84 H84       -71.8589   34.1108  -72.7430 H         1 UNK         0.3453 
     85 H85       -70.2936   33.7936  -72.0437 H         1 UNK         0.3453 
     86 H86       -72.7812   29.6591  -74.0084 H         1 UNK         0.2984 
     87 H87       -72.0962   29.0807  -77.0514 H         1 UNK         0.0554 
     88 H88       -69.6593   29.3170  -77.2739 H         1 UNK         0.0847 
     89 H89       -70.0649   27.6187  -77.0943 H         1 UNK         0.0847 
     90 H90       -69.3915   28.5171  -75.7341 H         1 UNK         0.0847 
     91 H91       -72.9999   27.5357  -75.8222 H         1 UNK         0.3141 
     92 H92       -71.9672   25.5872  -73.0099 H         1 UNK         0.0743 
     93 H93       -74.4946   27.1888  -73.6947 H         1 UNK         0.0784 
     94 H94       -74.4364   25.7721  -72.6489 H         1 UNK         0.0784 
     95 H95       -73.6099   27.2480  -72.1790 H         1 UNK         0.0784 
     96 H96       -73.9190   25.0643  -74.9939 H         1 UNK         0.3213 
     97 H97       -71.7992   23.3500  -77.3208 H         1 UNK         0.0855 
     98 H98       -74.0068   22.4398  -75.3940 H         1 UNK         0.0814 
     99 H99       -72.4198   21.7105  -75.5729 H         1 UNK         0.0814 
    100 H100      -73.5637   21.6434  -76.9030 H         1 UNK         0.0814 
    101 H101      -74.6057   24.2024  -77.0772 H         1 UNK         0.3105 
    102 H102      -74.2672   26.9129  -79.3108 H         1 UNK         0.0547 
    103 H103      -74.3413   25.0138  -80.9400 H         1 UNK         0.0837 
    104 H104      -75.5251   24.1857  -79.9371 H         1 UNK         0.0837 
    105 H105      -75.9317   25.7192  -80.7068 H         1 UNK         0.0837 
    106 H106      -76.5473   25.5845  -78.1868 H         1 UNK         0.3020 
    107 H107      -76.5016   27.2087  -75.0346 H         1 UNK         0.1245 
    108 H108      -78.9288   27.6769  -76.0395 H         1 UNK         0.0781 
    109 H109      -78.1033   27.9267  -77.5408 H         1 UNK         0.0781 
    110 H110      -79.5466   29.3607  -74.5388 H         1 UNK         0.0836 
    111 H111      -78.7449   30.8732  -74.2306 H         1 UNK         0.0836 
    112 H112      -78.4093   25.4775  -76.1927 H         1 UNK         0.3022 
    113 H113      -76.9358   22.4523  -76.0916 H         1 UNK         0.0747 
    114 H114      -78.2641   21.5821  -74.1979 H         1 UNK         0.0793 
    115 H115      -76.9045   22.5037  -73.5797 H         1 UNK         0.0793 
    116 H116      -78.5152   23.2092  -73.5732 H         1 UNK         0.0793 
    117 H117      -79.7053   23.2280  -75.7133 H         1 UNK         0.3047 
    118 H118      -80.3702   23.9543  -79.1396 H         1 UNK         0.0822 
    119 H119      -82.2341   22.4561  -78.5019 H         1 UNK         0.0807 
    120 H120      -81.3722   21.9456  -77.0532 H         1 UNK         0.0807 
    121 H121      -80.7312   21.5592  -78.6407 H         1 UNK         0.0807 
    122 H122      -81.3808   25.5370  -78.0180 H         1 UNK         0.2946 
    123 H123      -81.7880   26.9549  -76.3312 H         1 UNK         0.1144 
    124 H124      -84.1880   27.0569  -75.5323 H         1 UNK         0.0793 
    125 H125      -84.1958   25.2968  -75.4120 H         1 UNK         0.0793 
    126 H126      -83.9677   26.0692  -76.9677 H         1 UNK         0.0793 
    127 H127      -81.0389   27.1723  -74.2723 H         1 UNK         0.2896 
@<TRIPOS>BOND
     1    1    2 1    
     2    1   67 1    
     3    1   68 1    
     4    1   69 1    
     5    2    3 2    
     6    2    4 am   BACKBONE|DICT|INTERRES
     7    4    5 1    
     8    4   70 1    
     9    5    6 1    
    10    5   65 1    
    11    5   71 1    
    12    6    7 1    
    13    6   72 1    
    14    6   73 1    
    15    7    8 1    
    16    8    9 1    
    17    8   74 1    
    18    8   75 1    
    19    9   10 ar   
    20    9   14 ar   
    21   10   11 ar   
    22   10   76 1    
    23   11   12 ar   
    24   11   48 1    
    25   12   13 ar   
    26   12   77 1    
    27   13   14 ar   
    28   13   15 1    
    29   14   78 1    
    30   15   16 1    
    31   15   79 1    
    32   15   80 1    
    33   16   17 1    
    34   17   18 1    
    35   17   81 1    
    36   17   82 1    
    37   18   19 1    
    38   18   22 1    
    39   18   83 1    
    40   19   20 am   BACKBONE|DICT|INTERRES
    41   19   21 2    
    42   20   84 1    
    43   20   85 1    
    44   22   23 am   BACKBONE|DICT|INTERRES
    45   22   86 1    
    46   23   24 2    
    47   23   25 1    
    48   25   26 1    
    49   25   27 1    
    50   25   87 1    
    51   26   88 1    
    52   26   89 1    
    53   26   90 1    
    54   27   28 am   BACKBONE|DICT|INTERRES
    55   27   91 1    
    56   28   29 2    
    57   28   30 1    
    58   30   31 1    
    59   30   32 1    
    60   30   92 1    
    61   31   93 1    
    62   31   94 1    
    63   31   95 1    
    64   32   33 am   BACKBONE|DICT|INTERRES
    65   32   96 1    
    66   33   34 2    
    67   33   35 1    
    68   35   36 1    
    69   35   37 1    
    70   35   97 1    
    71   36   98 1    
    72   36   99 1    
    73   36  100 1    
    74   37   38 am   BACKBONE|DICT|INTERRES
    75   37  101 1    
    76   38   39 2    
    77   38   40 1    
    78   40   41 1    
    79   40   42 1    
    80   40  102 1    
    81   41  103 1    
    82   41  104 1    
    83   41  105 1    
    84   42   43 am   BACKBONE|DICT|INTERRES
    85   42  106 1    
    86   43   44 2    
    87   43   45 1    
    88   45   46 1    
    89   45   49 1    
    90   45  107 1    
    91   46   47 1    
    92   46  108 1    
    93   46  109 1    
    94   47   48 1    
    95   48  110 1    
    96   48  111 1    
    97   49   50 am   BACKBONE|DICT|INTERRES
    98   49  112 1    
    99   50   51 2    
   100   50   52 1    
   101   52   53 1    
   102   52   54 1    
   103   52  113 1    
   104   53  114 1    
   105   53  115 1    
   106   53  116 1    
   107   54   55 am   BACKBONE|DICT|INTERRES
   108   54  117 1    
   109   55   56 2    
   110   55   57 1    
   111   57   58 1    
   112   57   59 1    
   113   57  118 1    
   114   58  119 1    
   115   58  120 1    
   116   58  121 1    
   117   59   60 am   BACKBONE|DICT|INTERRES
   118   59  122 1    
   119   60   61 2    
   120   60   62 1    
   121   62   63 1    
   122   62   64 1    
   123   62  123 1    
   124   63  124 1    
   125   63  125 1    
   126   63  126 1    
   127   64   65 am   BACKBONE|DICT|INTERRES
   128   64  127 1    
   129   65   66 2    
@<TRIPOS>SUBSTRUCTURE
     1 UNK         1 GROUP             0       ****    0 ROOT    
