@<TRIPOS>MOLECULE
3R135
127   129    1
SMALL
USER_CHARGES


@<TRIPOS>ATOM
      1 CA        -81.8742   27.5056  -69.8030 C.3       0 UNK        -0.1998 
      2 C         -82.7057   27.3606  -71.0687 C.2       0 UNK         0.4909 
      3 O         -83.8091   26.8167  -71.0196 O.2       0 UNK        -0.5240 
      4 N         -82.1828   27.8416  -72.2040 N.am      1 UNK        -0.4739 
      5 CA        -82.8221   27.7661  -73.5247 C.3       1 UNK         0.0864 
      6 C6        -82.2761   28.8592  -74.4821 C.3       11 UNK        -0.0881 
      7 S7        -80.4949   28.6937  -74.8539 S.3       11 UNK        -0.2682 
      8 C8        -79.7499   29.9571  -73.7813 C.3       11 UNK         0.0289 
      9 C9        -78.3418   29.5424  -73.3885 C.ar      11 UNK        -0.0687 
     10 C10       -78.1496   28.6762  -72.3092 C.ar      11 UNK        -0.0823 
     11 C11       -76.8653   28.2625  -71.9483 C.ar      11 UNK        -0.0830 
     12 C12       -75.7640   28.7362  -72.6676 C.ar      11 UNK        -0.1021 
     13 C13       -75.9434   29.5963  -73.7555 C.ar      11 UNK        -0.0753 
     14 C14       -77.2351   29.9994  -74.1097 C.ar      11 UNK        -0.0933 
     15 C15       -74.7477   30.0566  -74.5760 C.3       11 UNK         0.0166 
     16 S16       -74.2778   31.7715  -74.1879 S.3       11 UNK        -0.2615 
     17 C17       -73.4304   31.5684  -72.5824 C.3       11 UNK        -0.0865 
     18 CA        -71.9298   31.9807  -72.6356 C.3       10 UNK         0.0862 
     19 C         -71.2699   32.0176  -71.2218 C.2       10 UNK         0.5551 
     20 N         -69.9836   31.7185  -71.0855 N.am      10 UNK        -0.7319 
     21 O         -71.9211   32.3554  -70.2360 O.2       10 UNK        -0.5018 
     22 N         -71.1569   31.2524  -73.6621 N.am      10 UNK        -0.4509 
     23 C         -70.9196   29.9349  -73.6883 C.2       10 UNK         0.4899 
     24 O         -71.3168   29.1395  -72.8339 O.2       10 UNK        -0.4839 
     25 CA        -70.0389   29.4366  -74.8480 C.3       9 UNK         0.0222 
     26 CB        -68.5501   29.5695  -74.4861 C.3       9 UNK        -0.1966 
     27 N         -70.3257   28.0394  -75.1785 N.am      9 UNK        -0.4218 
     28 C         -71.4236   27.6243  -75.8225 C.2       9 UNK         0.5020 
     29 O         -72.2564   28.3917  -76.3108 O.2       9 UNK        -0.5274 
     30 CA        -71.6030   26.0994  -75.9303 C.3       8 UNK         0.0270 
     31 CB        -71.7281   25.4531  -74.5370 C.3       8 UNK        -0.1976 
     32 N         -72.7982   25.7711  -76.7090 N.am      8 UNK        -0.4313 
     33 C         -72.8120   25.5290  -78.0269 C.2       8 UNK         0.5041 
     34 O         -71.7939   25.5025  -78.7215 O.2       8 UNK        -0.5577 
     35 CA        -74.1691   25.2396  -78.7012 C.3       7 UNK         0.0284 
     36 CB        -74.2988   23.7403  -79.0184 C.3       7 UNK        -0.1958 
     37 N         -75.3302   25.6509  -77.9120 N.am      7 UNK        -0.4454 
     38 C         -75.7168   26.9159  -77.7007 C.2       7 UNK         0.5089 
     39 O         -75.1894   27.8935  -78.2307 O.2       7 UNK        -0.5125 
     40 CA        -76.8915   27.1230  -76.7251 C.3       6 UNK         0.0408 
     41 CB        -78.2113   27.1684  -77.5094 C.3       6 UNK        -0.1791 
     42 N         -76.9833   26.1031  -75.6707 N.am      6 UNK        -0.4762 
     43 C         -76.0124   25.8082  -74.7902 C.2       6 UNK         0.5007 
     44 O         -74.9138   26.3594  -74.7826 O.2       6 UNK        -0.5032 
     45 CA        -76.2716   24.6427  -73.8183 C.3       5 UNK         0.0783 
     46 C46       -77.0458   25.0748  -72.5469 C.3       11 UNK        -0.0857 
     47 S47       -75.9076   25.7243  -71.2737 S.3       11 UNK        -0.2512 
     48 C48       -76.6783   27.3013  -70.7823 C.3       11 UNK         0.0225 
     49 N         -76.9252   23.5369  -74.5199 N.am      5 UNK        -0.4615 
     50 C         -76.2675   22.6154  -75.2383 C.2       4 UNK         0.5053 
     51 O         -75.0408   22.5590  -75.3195 O.2       4 UNK        -0.5105 
     52 CA        -77.1128   21.5861  -76.0094 C.3       4 UNK         0.0263 
     53 CB        -77.3482   20.3334  -75.1506 C.3       4 UNK        -0.1981 
     54 N         -78.4019   22.1157  -76.4579 N.am      4 UNK        -0.4224 
     55 C         -78.5499   23.0865  -77.3703 C.2       3 UNK         0.4895 
     56 O         -77.6131   23.6095  -77.9735 O.2       3 UNK        -0.5091 
     57 CA        -79.9840   23.5884  -77.6163 C.3       3 UNK         0.0250 
     58 CB        -80.6571   22.7657  -78.7262 C.3       3 UNK        -0.1996 
     59 N         -80.8355   23.5879  -76.4190 N.am      3 UNK        -0.4254 
     60 C         -80.5734   24.2614  -75.2900 C.2       2 UNK         0.5004 
     61 O         -79.5398   24.9065  -75.0977 O.2       2 UNK        -0.5226 
     62 CA        -81.6044   24.1518  -74.1601 C.3       2 UNK         0.0269 
     63 CB        -81.0671   23.2541  -73.0331 C.3       2 UNK        -0.1926 
     64 N         -81.8867   25.4798  -73.6205 N.am      2 UNK        -0.4687 
     65 C         -82.7520   26.3537  -74.1549 C.2       1 UNK         0.5165 
     66 O         -83.4814   26.0839  -75.1110 O.2       1 UNK        -0.5079 
     67 H67       -80.9473   28.0501  -69.9815 H         1 UNK         0.0900 
     68 H68       -81.6203   26.5229  -69.4066 H         1 UNK         0.0900 
     69 H69       -82.4400   28.0435  -69.0428 H         1 UNK         0.0900 
     70 H70       -81.2730   28.2763  -72.1932 H         1 UNK         0.2959 
     71 H71       -83.8861   27.9709  -73.3837 H         1 UNK         0.1079 
     72 H72       -82.8207   28.8342  -75.4280 H         1 UNK         0.0837 
     73 H73       -82.4709   29.8490  -74.0662 H         1 UNK         0.0837 
     74 H74       -79.7410   30.9152  -74.3032 H         1 UNK         0.0685 
     75 H75       -80.3526   30.1001  -72.8835 H         1 UNK         0.0685 
     76 H76       -79.0042   28.3115  -71.7581 H         1 UNK         0.1434 
     77 H77       -74.7692   28.4054  -72.4012 H         1 UNK         0.1329 
     78 H78       -77.3776   30.6574  -74.9559 H         1 UNK         0.1335 
     79 H79       -73.8946   29.3956  -74.4168 H         1 UNK         0.0680 
     80 H80       -74.9883   29.9852  -75.6378 H         1 UNK         0.0680 
     81 H81       -73.5294   30.5425  -72.2268 H         1 UNK         0.1032 
     82 H82       -73.9701   32.1832  -71.8600 H         1 UNK         0.1032 
     83 H83       -71.9057   33.0216  -72.9602 H         1 UNK         0.0461 
     84 H84       -69.4352   31.4498  -71.8859 H         1 UNK         0.3453 
     85 H85       -69.5614   31.7558  -70.1711 H         1 UNK         0.3453 
     86 H86       -70.7714   31.8274  -74.3975 H         1 UNK         0.2984 
     87 H87       -70.2388   30.0491  -75.7301 H         1 UNK         0.0554 
     88 H88       -67.9109   29.2344  -75.3034 H         1 UNK         0.0847 
     89 H89       -68.2952   28.9866  -73.5998 H         1 UNK         0.0847 
     90 H90       -68.2869   30.6076  -74.2794 H         1 UNK         0.0847 
     91 H91       -69.7089   27.3474  -74.7789 H         1 UNK         0.3141 
     92 H92       -70.7195   25.6868  -76.4218 H         1 UNK         0.0743 
     93 H93       -72.4886   25.9438  -73.9284 H         1 UNK         0.0784 
     94 H94       -71.9891   24.3969  -74.6096 H         1 UNK         0.0784 
     95 H95       -70.7890   25.5135  -73.9865 H         1 UNK         0.0784 
     96 H96       -73.6805   25.8850  -76.2170 H         1 UNK         0.3213 
     97 H97       -74.1872   25.7924  -79.6429 H         1 UNK         0.0855 
     98 H98       -74.3051   23.1365  -78.1097 H         1 UNK         0.0814 
     99 H99       -73.4669   23.3960  -79.6344 H         1 UNK         0.0814 
    100 H100      -75.2168   23.5284  -79.5671 H         1 UNK         0.0814 
    101 H101      -75.8904   24.9125  -77.5024 H         1 UNK         0.3105 
    102 H102      -76.7514   28.0840  -76.2287 H         1 UNK         0.0547 
    103 H103      -78.2544   28.0560  -78.1414 H         1 UNK         0.0837 
    104 H104      -78.3188   26.3025  -78.1620 H         1 UNK         0.0837 
    105 H105      -79.0755   27.1955  -76.8481 H         1 UNK         0.0837 
    106 H106      -77.8770   25.6244  -75.5784 H         1 UNK         0.3020 
    107 H107      -75.2892   24.2845  -73.4990 H         1 UNK         0.1245 
    108 H108      -77.5469   24.2136  -72.1025 H         1 UNK         0.0781 
    109 H109      -77.8385   25.7884  -72.7794 H         1 UNK         0.0781 
    110 H110      -76.0510   27.7787  -70.0284 H         1 UNK         0.0836 
    111 H111      -77.6306   27.0870  -70.2947 H         1 UNK         0.0836 
    112 H112      -77.9354   23.5723  -74.5660 H         1 UNK         0.3022 
    113 H113      -76.5448   21.2933  -76.8953 H         1 UNK         0.0747 
    114 H114      -77.8754   19.5608  -75.7108 H         1 UNK         0.0793 
    115 H115      -76.4010   19.9029  -74.8221 H         1 UNK         0.0793 
    116 H116      -77.9310   20.5587  -74.2564 H         1 UNK         0.0793 
    117 H117      -79.2301   21.7408  -76.0191 H         1 UNK         0.3047 
    118 H118      -79.9136   24.6216  -77.9590 H         1 UNK         0.0822 
    119 H119      -81.6331   23.1750  -78.9882 H         1 UNK         0.0807 
    120 H120      -80.7963   21.7247  -78.4319 H         1 UNK         0.0807 
    121 H121      -80.0532   22.7694  -79.6349 H         1 UNK         0.0807 
    122 H122      -81.7014   23.0721  -76.4871 H         1 UNK         0.2946 
    123 H123      -82.5282   23.7146  -74.5462 H         1 UNK         0.1144 
    124 H124      -81.7914   23.1601  -72.2237 H         1 UNK         0.0793 
    125 H125      -80.1411   23.6449  -72.6088 H         1 UNK         0.0793 
    126 H126      -80.8594   22.2477  -73.3991 H         1 UNK         0.0793 
    127 H127      -81.2919   25.8019  -72.8721 H         1 UNK         0.2896 
@<TRIPOS>BOND
     1    1    2 1    
     2    1   67 1    
     3    1   68 1    
     4    1   69 1    
     5    2    3 2    
     6    2    4 am   BACKBONE|DICT|INTERRES
     7    4    5 1    
     8    4   70 1    
     9    5    6 1    
    10    5   65 1    
    11    5   71 1    
    12    6    7 1    
    13    6   72 1    
    14    6   73 1    
    15    7    8 1    
    16    8    9 1    
    17    8   74 1    
    18    8   75 1    
    19    9   10 ar   
    20    9   14 ar   
    21   10   11 ar   
    22   10   76 1    
    23   11   12 ar   
    24   11   48 1    
    25   12   13 ar   
    26   12   77 1    
    27   13   14 ar   
    28   13   15 1    
    29   14   78 1    
    30   15   16 1    
    31   15   79 1    
    32   15   80 1    
    33   16   17 1    
    34   17   18 1    
    35   17   81 1    
    36   17   82 1    
    37   18   19 1    
    38   18   22 1    
    39   18   83 1    
    40   19   20 am   BACKBONE|DICT|INTERRES
    41   19   21 2    
    42   20   84 1    
    43   20   85 1    
    44   22   23 am   BACKBONE|DICT|INTERRES
    45   22   86 1    
    46   23   24 2    
    47   23   25 1    
    48   25   26 1    
    49   25   27 1    
    50   25   87 1    
    51   26   88 1    
    52   26   89 1    
    53   26   90 1    
    54   27   28 am   BACKBONE|DICT|INTERRES
    55   27   91 1    
    56   28   29 2    
    57   28   30 1    
    58   30   31 1    
    59   30   32 1    
    60   30   92 1    
    61   31   93 1    
    62   31   94 1    
    63   31   95 1    
    64   32   33 am   BACKBONE|DICT|INTERRES
    65   32   96 1    
    66   33   34 2    
    67   33   35 1    
    68   35   36 1    
    69   35   37 1    
    70   35   97 1    
    71   36   98 1    
    72   36   99 1    
    73   36  100 1    
    74   37   38 am   BACKBONE|DICT|INTERRES
    75   37  101 1    
    76   38   39 2    
    77   38   40 1    
    78   40   41 1    
    79   40   42 1    
    80   40  102 1    
    81   41  103 1    
    82   41  104 1    
    83   41  105 1    
    84   42   43 am   BACKBONE|DICT|INTERRES
    85   42  106 1    
    86   43   44 2    
    87   43   45 1    
    88   45   46 1    
    89   45   49 1    
    90   45  107 1    
    91   46   47 1    
    92   46  108 1    
    93   46  109 1    
    94   47   48 1    
    95   48  110 1    
    96   48  111 1    
    97   49   50 am   BACKBONE|DICT|INTERRES
    98   49  112 1    
    99   50   51 2    
   100   50   52 1    
   101   52   53 1    
   102   52   54 1    
   103   52  113 1    
   104   53  114 1    
   105   53  115 1    
   106   53  116 1    
   107   54   55 am   BACKBONE|DICT|INTERRES
   108   54  117 1    
   109   55   56 2    
   110   55   57 1    
   111   57   58 1    
   112   57   59 1    
   113   57  118 1    
   114   58  119 1    
   115   58  120 1    
   116   58  121 1    
   117   59   60 am   BACKBONE|DICT|INTERRES
   118   59  122 1    
   119   60   61 2    
   120   60   62 1    
   121   62   63 1    
   122   62   64 1    
   123   62  123 1    
   124   63  124 1    
   125   63  125 1    
   126   63  126 1    
   127   64   65 am   BACKBONE|DICT|INTERRES
   128   64  127 1    
   129   65   66 2    
@<TRIPOS>SUBSTRUCTURE
     1 UNK         1 GROUP             0       ****    0 ROOT    
