@<TRIPOS>MOLECULE
3R135
127   129    1
SMALL
USER_CHARGES


@<TRIPOS>ATOM
      1 CA        -76.2078   21.2811  -72.3252 C.3       0 UNK        -0.1998 
      2 C         -76.8962   22.2185  -71.3444 C.2       0 UNK         0.4909 
      3 O         -77.1980   21.8189  -70.2199 O.2       0 UNK        -0.5240 
      4 N         -77.1503   23.4642  -71.7640 N.am      1 UNK        -0.4739 
      5 CA        -77.7982   24.5112  -70.9618 C.3       1 UNK         0.0864 
      6 C6        -77.4470   25.9204  -71.5069 C.3       11 UNK        -0.0881 
      7 S7        -78.0263   26.1992  -73.2208 S.3       11 UNK        -0.2682 
      8 C8        -79.4184   27.3389  -72.9524 C.3       11 UNK         0.0289 
      9 C9        -79.0447   28.7556  -73.3506 C.ar      11 UNK        -0.0687 
     10 C10       -79.3548   29.2160  -74.6330 C.ar      11 UNK        -0.0823 
     11 C11       -79.0014   30.5087  -75.0269 C.ar      11 UNK        -0.0830 
     12 C12       -78.3569   31.3508  -74.1181 C.ar      11 UNK        -0.1021 
     13 C13       -78.0523   30.9069  -72.8282 C.ar      11 UNK        -0.0753 
     14 C14       -78.3937   29.6043  -72.4489 C.ar      11 UNK        -0.0933 
     15 C15       -77.3749   31.8550  -71.8510 C.3       11 UNK         0.0166 
     16 S16       -75.6302   32.1336  -72.2841 S.3       11 UNK        -0.2615 
     17 C17       -74.8236   30.7619  -71.3969 C.3       11 UNK        -0.0865 
     18 CA        -73.3381   30.6022  -71.8164 C.3       10 UNK         0.0862 
     19 C         -72.5365   29.7697  -70.7701 C.2       10 UNK         0.5551 
     20 N         -71.8462   28.6965  -71.1343 N.am      10 UNK        -0.7319 
     21 O         -72.5311   30.1161  -69.5913 O.2       10 UNK        -0.5018 
     22 N         -73.2254   30.1223  -73.2039 N.am      10 UNK        -0.4509 
     23 C         -72.1764   30.3274  -74.0105 C.2       10 UNK         0.4899 
     24 O         -71.2143   31.0382  -73.7142 O.2       10 UNK        -0.4839 
     25 CA        -72.2062   29.5865  -75.3666 C.3       9 UNK         0.0222 
     26 CB        -70.8307   29.5578  -76.0650 C.3       9 UNK        -0.1966 
     27 N         -72.7580   28.2263  -75.2762 N.am      9 UNK        -0.4218 
     28 C         -72.3443   27.2448  -74.4569 C.2       9 UNK         0.5020 
     29 O         -71.4104   27.3561  -73.6621 O.2       9 UNK        -0.5274 
     30 CA        -73.1254   25.9255  -74.4993 C.3       8 UNK         0.0270 
     31 CB        -74.4592   26.0671  -73.7512 C.3       8 UNK        -0.1976 
     32 N         -73.3708   25.4561  -75.8604 N.am      8 UNK        -0.4313 
     33 C         -72.4282   24.9599  -76.6734 C.2       8 UNK         0.5041 
     34 O         -71.2428   24.8365  -76.3624 O.2       8 UNK        -0.5577 
     35 CA        -72.8879   24.5190  -78.0697 C.3       7 UNK         0.0284 
     36 CB        -73.5754   23.1459  -78.0089 C.3       7 UNK        -0.1958 
     37 N         -73.7919   25.5012  -78.6678 N.am      7 UNK        -0.4454 
     38 C         -73.3806   26.6177  -79.2831 C.2       7 UNK         0.5089 
     39 O         -72.1969   26.9096  -79.4562 O.2       7 UNK        -0.5125 
     40 CA        -74.4683   27.5708  -79.8079 C.3       6 UNK         0.0408 
     41 CB        -74.7465   27.2979  -81.2946 C.3       6 UNK        -0.1791 
     42 N         -75.7282   27.5074  -79.0621 N.am      6 UNK        -0.4762 
     43 C         -75.8879   27.9441  -77.8046 C.2       6 UNK         0.5007 
     44 O         -74.9688   28.3666  -77.1009 O.2       6 UNK        -0.5032 
     45 CA        -77.3153   27.8544  -77.2277 C.3       5 UNK         0.0783 
     46 C46       -78.2867   28.8328  -77.9404 C.3       11 UNK        -0.0857 
     47 S47       -77.9614   30.5933  -77.5848 S.3       11 UNK        -0.2512 
     48 C48       -79.3101   31.0007  -76.4317 C.3       11 UNK         0.0225 
     49 N         -77.8731   26.4956  -77.2264 N.am      5 UNK        -0.4615 
     50 C         -77.2838   25.3587  -76.8356 C.2       4 UNK         0.5053 
     51 O         -76.0973   25.2678  -76.5182 O.2       4 UNK        -0.5105 
     52 CA        -78.1895   24.1123  -76.7870 C.3       4 UNK         0.0263 
     53 CB        -77.4468   22.8601  -76.2842 C.3       4 UNK        -0.1981 
     54 N         -79.3716   24.3162  -75.9438 N.am      4 UNK        -0.4224 
     55 C         -80.4980   24.9474  -76.3064 C.2       3 UNK         0.4895 
     56 O         -80.6228   25.5250  -77.3874 O.2       3 UNK        -0.5091 
     57 CA        -81.6790   24.9356  -75.3167 C.3       3 UNK         0.0250 
     58 CB        -82.9857   24.4934  -76.0020 C.3       3 UNK        -0.1996 
     59 N         -81.4240   24.0753  -74.1555 N.am      3 UNK        -0.4254 
     60 C         -81.8131   24.3348  -72.9000 C.2       2 UNK         0.5004 
     61 O         -82.4567   25.3303  -72.5680 O.2       2 UNK        -0.5226 
     62 CA        -81.3653   23.3265  -71.8303 C.3       2 UNK         0.0269 
     63 CB        -81.7327   21.8762  -72.1964 C.3       2 UNK        -0.1926 
     64 N         -79.9199   23.4394  -71.6365 N.am      2 UNK        -0.4687 
     65 C         -79.3290   24.3305  -70.8267 C.2       1 UNK         0.5165 
     66 O         -79.9452   25.0264  -70.0181 O.2       1 UNK        -0.5079 
     67 H67       -76.8632   20.4453  -72.5690 H         1 UNK         0.0900 
     68 H68       -75.9395   21.7856  -73.2533 H         1 UNK         0.0900 
     69 H69       -75.2955   20.8811  -71.8835 H         1 UNK         0.0900 
     70 H70       -76.8782   23.7475  -72.6946 H         1 UNK         0.2959 
     71 H71       -77.3981   24.4455  -69.9473 H         1 UNK         0.1079 
     72 H72       -76.3653   26.0545  -71.4920 H         1 UNK         0.0837 
     73 H73       -77.8338   26.6967  -70.8444 H         1 UNK         0.0837 
     74 H74       -79.7601   27.3108  -71.9170 H         1 UNK         0.0685 
     75 H75       -80.2640   26.9985  -73.5485 H         1 UNK         0.0685 
     76 H76       -79.8584   28.5599  -75.3291 H         1 UNK         0.1434 
     77 H77       -78.0835   32.3544  -74.4152 H         1 UNK         0.1329 
     78 H78       -78.1569   29.2509  -71.4548 H         1 UNK         0.1335 
     79 H79       -77.4519   31.4875  -70.8264 H         1 UNK         0.0680 
     80 H80       -77.8955   32.8137  -71.8690 H         1 UNK         0.0680 
     81 H81       -75.3746   29.8352  -71.5679 H         1 UNK         0.1032 
     82 H82       -74.9112   30.9770  -70.3299 H         1 UNK         0.1032 
     83 H83       -72.8856   31.5952  -71.7779 H         1 UNK         0.0461 
     84 H84       -71.7918   28.3965  -72.1029 H         1 UNK         0.3453 
     85 H85       -71.3353   28.1874  -70.4313 H         1 UNK         0.3453 
     86 H86       -73.9724   29.5286  -73.5309 H         1 UNK         0.2984 
     87 H87       -72.8893   30.1488  -76.0048 H         1 UNK         0.0554 
     88 H88       -70.4619   30.5675  -76.2488 H         1 UNK         0.0847 
     89 H89       -70.8880   29.0539  -77.0301 H         1 UNK         0.0847 
     90 H90       -70.0831   29.0418  -75.4616 H         1 UNK         0.0847 
     91 H91       -73.5546   28.0496  -75.8862 H         1 UNK         0.3141 
     92 H92       -72.5293   25.1692  -73.9839 H         1 UNK         0.0743 
     93 H93       -74.2977   26.4131  -72.7295 H         1 UNK         0.0784 
     94 H94       -75.1248   26.7807  -74.2390 H         1 UNK         0.0784 
     95 H95       -74.9826   25.1127  -73.6938 H         1 UNK         0.0784 
     96 H96       -74.3385   25.4775  -76.1819 H         1 UNK         0.3213 
     97 H97       -72.0022   24.4217  -78.7018 H         1 UNK         0.0855 
     98 H98       -74.4457   23.1601  -77.3542 H         1 UNK         0.0814 
     99 H99       -72.8925   22.3879  -77.6227 H         1 UNK         0.0814 
    100 H100      -73.8997   22.8177  -78.9964 H         1 UNK         0.0814 
    101 H101      -74.7827   25.3700  -78.5186 H         1 UNK         0.3105 
    102 H102      -74.0793   28.5875  -79.7183 H         1 UNK         0.0547 
    103 H103      -75.4478   28.0229  -81.7080 H         1 UNK         0.0837 
    104 H104      -73.8298   27.3673  -81.8819 H         1 UNK         0.0837 
    105 H105      -75.1591   26.3008  -81.4531 H         1 UNK         0.0837 
    106 H106      -76.5334   27.1460  -79.5536 H         1 UNK         0.3020 
    107 H107      -77.2409   28.1449  -76.1775 H         1 UNK         0.1245 
    108 H108      -79.3160   28.6094  -77.6573 H         1 UNK         0.0781 
    109 H109      -78.2590   28.6928  -79.0225 H         1 UNK         0.0781 
    110 H110      -80.2545   30.5867  -76.7881 H         1 UNK         0.0836 
    111 H111      -79.4443   32.0835  -76.4223 H         1 UNK         0.0836 
    112 H112      -78.8573   26.4207  -77.4641 H         1 UNK         0.3022 
    113 H113      -78.5192   23.9138  -77.8091 H         1 UNK         0.0747 
    114 H114      -78.1099   21.9963  -76.2335 H         1 UNK         0.0793 
    115 H115      -76.6335   22.5944  -76.9584 H         1 UNK         0.0793 
    116 H116      -77.0168   23.0137  -75.2938 H         1 UNK         0.0793 
    117 H117      -79.2978   23.9802  -74.9969 H         1 UNK         0.3047 
    118 H118      -81.8033   25.9682  -74.9857 H         1 UNK         0.0822 
    119 H119      -83.2241   25.1356  -76.8510 H         1 UNK         0.0807 
    120 H120      -83.8303   24.5450  -75.3147 H         1 UNK         0.0807 
    121 H121      -82.9182   23.4704  -76.3738 H         1 UNK         0.0807 
    122 H122      -80.9487   23.2043  -74.3417 H         1 UNK         0.2946 
    123 H123      -81.8830   23.5782  -70.9012 H         1 UNK         0.1144 
    124 H124      -81.5144   21.1998  -71.3697 H         1 UNK         0.0793 
    125 H125      -81.1898   21.5127  -73.0691 H         1 UNK         0.0793 
    126 H126      -82.7986   21.7864  -72.4111 H         1 UNK         0.0793 
    127 H127      -79.3253   22.9011  -72.2483 H         1 UNK         0.2896 
@<TRIPOS>BOND
     1    1    2 1    
     2    1   67 1    
     3    1   68 1    
     4    1   69 1    
     5    2    3 2    
     6    2    4 am   BACKBONE|DICT|INTERRES
     7    4    5 1    
     8    4   70 1    
     9    5    6 1    
    10    5   65 1    
    11    5   71 1    
    12    6    7 1    
    13    6   72 1    
    14    6   73 1    
    15    7    8 1    
    16    8    9 1    
    17    8   74 1    
    18    8   75 1    
    19    9   10 ar   
    20    9   14 ar   
    21   10   11 ar   
    22   10   76 1    
    23   11   12 ar   
    24   11   48 1    
    25   12   13 ar   
    26   12   77 1    
    27   13   14 ar   
    28   13   15 1    
    29   14   78 1    
    30   15   16 1    
    31   15   79 1    
    32   15   80 1    
    33   16   17 1    
    34   17   18 1    
    35   17   81 1    
    36   17   82 1    
    37   18   19 1    
    38   18   22 1    
    39   18   83 1    
    40   19   20 am   BACKBONE|DICT|INTERRES
    41   19   21 2    
    42   20   84 1    
    43   20   85 1    
    44   22   23 am   BACKBONE|DICT|INTERRES
    45   22   86 1    
    46   23   24 2    
    47   23   25 1    
    48   25   26 1    
    49   25   27 1    
    50   25   87 1    
    51   26   88 1    
    52   26   89 1    
    53   26   90 1    
    54   27   28 am   BACKBONE|DICT|INTERRES
    55   27   91 1    
    56   28   29 2    
    57   28   30 1    
    58   30   31 1    
    59   30   32 1    
    60   30   92 1    
    61   31   93 1    
    62   31   94 1    
    63   31   95 1    
    64   32   33 am   BACKBONE|DICT|INTERRES
    65   32   96 1    
    66   33   34 2    
    67   33   35 1    
    68   35   36 1    
    69   35   37 1    
    70   35   97 1    
    71   36   98 1    
    72   36   99 1    
    73   36  100 1    
    74   37   38 am   BACKBONE|DICT|INTERRES
    75   37  101 1    
    76   38   39 2    
    77   38   40 1    
    78   40   41 1    
    79   40   42 1    
    80   40  102 1    
    81   41  103 1    
    82   41  104 1    
    83   41  105 1    
    84   42   43 am   BACKBONE|DICT|INTERRES
    85   42  106 1    
    86   43   44 2    
    87   43   45 1    
    88   45   46 1    
    89   45   49 1    
    90   45  107 1    
    91   46   47 1    
    92   46  108 1    
    93   46  109 1    
    94   47   48 1    
    95   48  110 1    
    96   48  111 1    
    97   49   50 am   BACKBONE|DICT|INTERRES
    98   49  112 1    
    99   50   51 2    
   100   50   52 1    
   101   52   53 1    
   102   52   54 1    
   103   52  113 1    
   104   53  114 1    
   105   53  115 1    
   106   53  116 1    
   107   54   55 am   BACKBONE|DICT|INTERRES
   108   54  117 1    
   109   55   56 2    
   110   55   57 1    
   111   57   58 1    
   112   57   59 1    
   113   57  118 1    
   114   58  119 1    
   115   58  120 1    
   116   58  121 1    
   117   59   60 am   BACKBONE|DICT|INTERRES
   118   59  122 1    
   119   60   61 2    
   120   60   62 1    
   121   62   63 1    
   122   62   64 1    
   123   62  123 1    
   124   63  124 1    
   125   63  125 1    
   126   63  126 1    
   127   64   65 am   BACKBONE|DICT|INTERRES
   128   64  127 1    
   129   65   66 2    
@<TRIPOS>SUBSTRUCTURE
     1 UNK         1 GROUP             0       ****    0 ROOT    
