@<TRIPOS>MOLECULE
3R135
127   129    1
SMALL
USER_CHARGES


@<TRIPOS>ATOM
      1 CA        -79.8898   28.0963  -70.5139 C.3       0 UNK        -0.1998 
      2 C         -80.6756   28.2849  -71.8017 C.2       0 UNK         0.4909 
      3 O         -81.8978   28.4277  -71.7616 O.2       0 UNK        -0.5240 
      4 N         -79.9815   28.2781  -72.9463 N.am      1 UNK        -0.4739 
      5 CA        -80.5642   28.4470  -74.2855 C.3       1 UNK         0.0864 
      6 C6        -79.4795   28.7975  -75.3347 C.3       11 UNK        -0.0881 
      7 S7        -78.7756   30.4592  -75.0842 S.3       11 UNK        -0.2682 
      8 C8        -77.0247   30.0864  -74.7594 C.3       11 UNK         0.0289 
      9 C9        -76.8080   29.5501  -73.3537 C.ar      11 UNK        -0.0687 
     10 C10       -76.3907   28.2329  -73.1485 C.ar      11 UNK        -0.0823 
     11 C11       -76.1484   27.7575  -71.8554 C.ar      11 UNK        -0.0830 
     12 C12       -76.2968   28.6234  -70.7676 C.ar      11 UNK        -0.1021 
     13 C13       -76.6992   29.9482  -70.9623 C.ar      11 UNK        -0.0753 
     14 C14       -76.9788   30.3957  -72.2558 C.ar      11 UNK        -0.0933 
     15 C15       -76.8064   30.9016  -69.7786 C.3       11 UNK         0.0166 
     16 S16       -75.7838   32.4023  -69.9838 S.3       11 UNK        -0.2615 
     17 C17       -74.1221   31.7088  -70.3026 C.3       11 UNK        -0.0865 
     18 CA        -73.7031   31.8048  -71.8002 C.3       10 UNK         0.0862 
     19 C         -73.0232   33.1654  -72.1407 C.2       10 UNK         0.5551 
     20 N         -71.7715   33.1887  -72.5835 N.am      10 UNK        -0.7319 
     21 O         -73.6425   34.2183  -72.0131 O.2       10 UNK        -0.5018 
     22 N         -72.9349   30.6160  -72.2087 N.am      10 UNK        -0.4509 
     23 C         -72.8661   30.1367  -73.4568 C.2       10 UNK         0.4899 
     24 O         -73.4427   30.6310  -74.4291 O.2       10 UNK        -0.4839 
     25 CA        -72.0098   28.8774  -73.6389 C.3       9 UNK         0.0222 
     26 CB        -72.6797   27.6550  -72.9841 C.3       9 UNK        -0.1966 
     27 N         -71.8073   28.6212  -75.0634 N.am      9 UNK        -0.4218 
     28 C         -70.8706   27.8168  -75.5748 C.2       9 UNK         0.5020 
     29 O         -70.0379   27.2142  -74.8940 O.2       9 UNK        -0.5274 
     30 CA        -70.9199   27.5822  -77.0883 C.3       8 UNK         0.0270 
     31 CB        -69.5136   27.3067  -77.6678 C.3       8 UNK        -0.1976 
     32 N         -71.8207   26.4513  -77.3059 N.am      8 UNK        -0.4313 
     33 C         -72.2337   25.9662  -78.4831 C.2       8 UNK         0.5041 
     34 O         -71.9093   26.4290  -79.5774 O.2       8 UNK        -0.5577 
     35 CA        -73.1990   24.7720  -78.4197 C.3       7 UNK         0.0284 
     36 CB        -72.5469   23.5442  -77.7591 C.3       7 UNK        -0.1958 
     37 N         -74.4183   25.1320  -77.6975 N.am      7 UNK        -0.4454 
     38 C         -75.4361   25.8292  -78.2130 C.2       7 UNK         0.5089 
     39 O         -75.4862   26.1614  -79.3986 O.2       7 UNK        -0.5125 
     40 CA        -76.5858   26.2389  -77.2612 C.3       6 UNK         0.0408 
     41 CB        -77.8914   26.5053  -78.0356 C.3       6 UNK        -0.1791 
     42 N         -76.8907   25.3059  -76.1686 N.am      6 UNK        -0.4762 
     43 C         -76.1286   24.9891  -75.1121 C.2       6 UNK         0.5007 
     44 O         -74.9650   25.3654  -74.9719 O.2       6 UNK        -0.5032 
     45 CA        -76.7894   24.1136  -74.0308 C.3       5 UNK         0.0783 
     46 C46       -77.6969   24.9678  -73.0945 C.3       11 UNK        -0.0857 
     47 S47       -77.0407   25.1524  -71.4045 S.3       11 UNK        -0.2512 
     48 C48       -75.6715   26.3289  -71.6288 C.3       11 UNK         0.0225 
     49 N         -77.5394   23.0240  -74.6583 N.am      5 UNK        -0.4615 
     50 C         -77.0223   21.8506  -75.0433 C.2       4 UNK         0.5053 
     51 O         -75.8417   21.5415  -74.8825 O.2       4 UNK        -0.5105 
     52 CA        -77.9803   20.8367  -75.6985 C.3       4 UNK         0.0263 
     53 CB        -78.3885   19.7573  -74.6823 C.3       4 UNK        -0.1981 
     54 N         -79.1911   21.4561  -76.2457 N.am      4 UNK        -0.4224 
     55 C         -79.2454   22.1148  -77.4118 C.2       3 UNK         0.4895 
     56 O         -78.2977   22.2086  -78.1918 O.2       3 UNK        -0.5091 
     57 CA        -80.5747   22.8172  -77.7517 C.3       3 UNK         0.0250 
     58 CB        -81.5012   21.8671  -78.5276 C.3       3 UNK        -0.1996 
     59 N         -81.2955   23.3659  -76.5925 N.am      3 UNK        -0.4254 
     60 C         -80.7906   24.2677  -75.7399 C.2       2 UNK         0.5004 
     61 O         -79.6241   24.6644  -75.7859 O.2       2 UNK        -0.5226 
     62 CA        -81.7134   24.7773  -74.6205 C.3       2 UNK         0.0269 
     63 CB        -81.7715   23.7693  -73.4607 C.3       2 UNK        -0.1926 
     64 N         -81.2258   26.0647  -74.1168 N.am      2 UNK        -0.4687 
     65 C         -81.3806   27.2263  -74.7682 C.2       1 UNK         0.5165 
     66 O         -82.1188   27.3533  -75.7470 O.2       1 UNK        -0.5079 
     67 H67       -80.4696   27.5181  -69.7950 H         1 UNK         0.0900 
     68 H68       -78.9556   27.5650  -70.6916 H         1 UNK         0.0900 
     69 H69       -79.6575   29.0634  -70.0691 H         1 UNK         0.0900 
     70 H70       -78.9729   28.2204  -72.9109 H         1 UNK         0.2959 
     71 H71       -81.2713   29.2784  -74.2377 H         1 UNK         0.1079 
     72 H72       -79.8957   28.7909  -76.3444 H         1 UNK         0.0837 
     73 H73       -78.6879   28.0462  -75.3303 H         1 UNK         0.0837 
     74 H74       -76.6486   29.3919  -75.5121 H         1 UNK         0.0685 
     75 H75       -76.4435   31.0023  -74.8774 H         1 UNK         0.0685 
     76 H76       -76.2346   27.5870  -73.9992 H         1 UNK         0.1434 
     77 H77       -76.0851   28.2671  -69.7686 H         1 UNK         0.1329 
     78 H78       -77.2893   31.4196  -72.4133 H         1 UNK         0.1335 
     79 H79       -77.8488   31.1981  -69.6560 H         1 UNK         0.0680 
     80 H80       -76.5155   30.4045  -68.8519 H         1 UNK         0.0680 
     81 H81       -73.3984   32.2083  -69.6556 H         1 UNK         0.1032 
     82 H82       -74.1270   30.6694  -69.9708 H         1 UNK         0.1032 
     83 H83       -74.6131   31.7915  -72.4014 H         1 UNK         0.0461 
     84 H84       -71.2548   32.3322  -72.6993 H         1 UNK         0.3453 
     85 H85       -71.3422   34.0729  -72.8066 H         1 UNK         0.3453 
     86 H86       -72.4091   30.1556  -71.4805 H         1 UNK         0.2984 
     87 H87       -71.0420   29.0614  -73.1678 H         1 UNK         0.0554 
     88 H88       -72.0210   26.7866  -72.9870 H         1 UNK         0.0847 
     89 H89       -73.5873   27.3830  -73.5214 H         1 UNK         0.0847 
     90 H90       -72.9520   27.8462  -71.9456 H         1 UNK         0.0847 
     91 H91       -72.4476   29.1201  -75.6701 H         1 UNK         0.3141 
     92 H92       -71.3357   28.4685  -77.5719 H         1 UNK         0.0743 
     93 H93       -69.1015   26.3663  -77.2995 H         1 UNK         0.0784 
     94 H94       -69.5266   27.2610  -78.7564 H         1 UNK         0.0784 
     95 H95       -68.8169   28.0993  -77.3918 H         1 UNK         0.0784 
     96 H96       -72.1601   26.0129  -76.4596 H         1 UNK         0.3213 
     97 H97       -73.4615   24.4985  -79.4444 H         1 UNK         0.0855 
     98 H98       -72.3097   23.7161  -76.7087 H         1 UNK         0.0814 
     99 H99       -71.6183   23.2768  -78.2653 H         1 UNK         0.0814 
    100 H100      -73.2043   22.6760  -77.8113 H         1 UNK         0.0814 
    101 H101      -74.4437   24.9658  -76.6948 H         1 UNK         0.3105 
    102 H102      -76.2776   27.1786  -76.7996 H         1 UNK         0.0547 
    103 H103      -77.7646   27.3057  -78.7655 H         1 UNK         0.0837 
    104 H104      -78.2196   25.6163  -78.5760 H         1 UNK         0.0837 
    105 H105      -78.7028   26.8028  -77.3733 H         1 UNK         0.0837 
    106 H106      -77.8449   24.9498  -76.1644 H         1 UNK         0.3020 
    107 H107      -75.9818   23.6712  -73.4424 H         1 UNK         0.1245 
    108 H108      -78.6666   24.4864  -72.9726 H         1 UNK         0.0781 
    109 H109      -77.9377   25.9490  -73.5057 H         1 UNK         0.0781 
    110 H110      -75.0386   25.9939  -72.4478 H         1 UNK         0.0836 
    111 H111      -75.0400   26.2927  -70.7398 H         1 UNK         0.0836 
    112 H112      -78.4953   23.2403  -74.9117 H         1 UNK         0.3022 
    113 H113      -77.4367   20.3505  -76.5116 H         1 UNK         0.0747 
    114 H114      -79.0148   18.9938  -75.1442 H         1 UNK         0.0793 
    115 H115      -77.5110   19.2514  -74.2767 H         1 UNK         0.0793 
    116 H116      -78.9382   20.1805  -73.8405 H         1 UNK         0.0793 
    117 H117      -80.0245   21.4164  -75.6772 H         1 UNK         0.3047 
    118 H118      -80.3301   23.6589  -78.4035 H         1 UNK         0.0822 
    119 H119      -82.3951   22.3826  -78.8792 H         1 UNK         0.0807 
    120 H120      -81.8184   21.0217  -77.9157 H         1 UNK         0.0807 
    121 H121      -80.9977   21.4621  -79.4069 H         1 UNK         0.0807 
    122 H122      -82.2554   23.0719  -76.4794 H         1 UNK         0.2946 
    123 H123      -82.7188   24.9099  -75.0272 H         1 UNK         0.1144 
    124 H124      -82.1922   22.8180  -73.7890 H         1 UNK         0.0793 
    125 H125      -82.4033   24.1356  -72.6513 H         1 UNK         0.0793 
    126 H126      -80.7859   23.5607  -73.0455 H         1 UNK         0.0793 
    127 H127      -80.5923   26.0425  -73.3325 H         1 UNK         0.2896 
@<TRIPOS>BOND
     1    1    2 1    
     2    1   67 1    
     3    1   68 1    
     4    1   69 1    
     5    2    3 2    
     6    2    4 am   BACKBONE|DICT|INTERRES
     7    4    5 1    
     8    4   70 1    
     9    5    6 1    
    10    5   65 1    
    11    5   71 1    
    12    6    7 1    
    13    6   72 1    
    14    6   73 1    
    15    7    8 1    
    16    8    9 1    
    17    8   74 1    
    18    8   75 1    
    19    9   10 ar   
    20    9   14 ar   
    21   10   11 ar   
    22   10   76 1    
    23   11   12 ar   
    24   11   48 1    
    25   12   13 ar   
    26   12   77 1    
    27   13   14 ar   
    28   13   15 1    
    29   14   78 1    
    30   15   16 1    
    31   15   79 1    
    32   15   80 1    
    33   16   17 1    
    34   17   18 1    
    35   17   81 1    
    36   17   82 1    
    37   18   19 1    
    38   18   22 1    
    39   18   83 1    
    40   19   20 am   BACKBONE|DICT|INTERRES
    41   19   21 2    
    42   20   84 1    
    43   20   85 1    
    44   22   23 am   BACKBONE|DICT|INTERRES
    45   22   86 1    
    46   23   24 2    
    47   23   25 1    
    48   25   26 1    
    49   25   27 1    
    50   25   87 1    
    51   26   88 1    
    52   26   89 1    
    53   26   90 1    
    54   27   28 am   BACKBONE|DICT|INTERRES
    55   27   91 1    
    56   28   29 2    
    57   28   30 1    
    58   30   31 1    
    59   30   32 1    
    60   30   92 1    
    61   31   93 1    
    62   31   94 1    
    63   31   95 1    
    64   32   33 am   BACKBONE|DICT|INTERRES
    65   32   96 1    
    66   33   34 2    
    67   33   35 1    
    68   35   36 1    
    69   35   37 1    
    70   35   97 1    
    71   36   98 1    
    72   36   99 1    
    73   36  100 1    
    74   37   38 am   BACKBONE|DICT|INTERRES
    75   37  101 1    
    76   38   39 2    
    77   38   40 1    
    78   40   41 1    
    79   40   42 1    
    80   40  102 1    
    81   41  103 1    
    82   41  104 1    
    83   41  105 1    
    84   42   43 am   BACKBONE|DICT|INTERRES
    85   42  106 1    
    86   43   44 2    
    87   43   45 1    
    88   45   46 1    
    89   45   49 1    
    90   45  107 1    
    91   46   47 1    
    92   46  108 1    
    93   46  109 1    
    94   47   48 1    
    95   48  110 1    
    96   48  111 1    
    97   49   50 am   BACKBONE|DICT|INTERRES
    98   49  112 1    
    99   50   51 2    
   100   50   52 1    
   101   52   53 1    
   102   52   54 1    
   103   52  113 1    
   104   53  114 1    
   105   53  115 1    
   106   53  116 1    
   107   54   55 am   BACKBONE|DICT|INTERRES
   108   54  117 1    
   109   55   56 2    
   110   55   57 1    
   111   57   58 1    
   112   57   59 1    
   113   57  118 1    
   114   58  119 1    
   115   58  120 1    
   116   58  121 1    
   117   59   60 am   BACKBONE|DICT|INTERRES
   118   59  122 1    
   119   60   61 2    
   120   60   62 1    
   121   62   63 1    
   122   62   64 1    
   123   62  123 1    
   124   63  124 1    
   125   63  125 1    
   126   63  126 1    
   127   64   65 am   BACKBONE|DICT|INTERRES
   128   64  127 1    
   129   65   66 2    
@<TRIPOS>SUBSTRUCTURE
     1 UNK         1 GROUP             0       ****    0 ROOT    
