@<TRIPOS>MOLECULE
3R135
127   129    1
SMALL
USER_CHARGES


@<TRIPOS>ATOM
      1 CA        -83.1508   25.4830  -72.6447 C.3       0 UNK        -0.1998 
      2 C         -82.4574   26.1797  -73.8053 C.2       0 UNK         0.4909 
      3 O         -82.9131   26.0752  -74.9450 O.2       0 UNK        -0.5240 
      4 N         -81.3597   26.8936  -73.5244 N.am      1 UNK        -0.4739 
      5 CA        -80.5406   27.5981  -74.5182 C.3       1 UNK         0.0864 
      6 C6        -79.4789   28.5202  -73.8684 C.3       11 UNK        -0.0881 
      7 S7        -80.1209   29.5984  -72.5424 S.3       11 UNK        -0.2682 
      8 C8        -78.5849   30.3843  -71.9282 C.3       11 UNK         0.0289 
      9 C9        -77.4755   29.4120  -71.5209 C.ar      11 UNK        -0.0687 
     10 C10       -77.7614   28.1634  -70.9554 C.ar      11 UNK        -0.0823 
     11 C11       -76.7370   27.2572  -70.6699 C.ar      11 UNK        -0.0830 
     12 C12       -75.4073   27.6358  -70.8718 C.ar      11 UNK        -0.1021 
     13 C13       -75.1004   28.8980  -71.3868 C.ar      11 UNK        -0.0753 
     14 C14       -76.1391   29.7717  -71.7270 C.ar      11 UNK        -0.0933 
     15 C15       -73.6489   29.2993  -71.6085 C.3       11 UNK         0.0166 
     16 S16       -73.1953   30.7782  -70.6533 S.3       11 UNK        -0.2615 
     17 C17       -71.4340   30.9584  -71.0930 C.3       11 UNK        -0.0865 
     18 CA        -71.2070   31.9419  -72.2710 C.3       10 UNK         0.0862 
     19 C         -69.7106   32.3524  -72.3550 C.2       10 UNK         0.5551 
     20 N         -69.3277   33.4376  -71.6967 N.am      10 UNK        -0.7319 
     21 O         -68.8918   31.6731  -72.9719 O.2       10 UNK        -0.5018 
     22 N         -71.6929   31.3828  -73.5423 N.am      10 UNK        -0.4509 
     23 C         -71.8405   32.0801  -74.6762 C.2       10 UNK         0.4899 
     24 O         -71.7073   33.3021  -74.7511 O.2       10 UNK        -0.4839 
     25 CA        -72.1773   31.2890  -75.9518 C.3       9 UNK         0.0222 
     26 CB        -70.8974   31.0155  -76.7587 C.3       9 UNK        -0.1966 
     27 N         -72.8508   30.0156  -75.6864 N.am      9 UNK        -0.4218 
     28 C         -74.1647   29.8612  -75.4854 C.2       9 UNK         0.5020 
     29 O         -74.9605   30.8019  -75.4729 O.2       9 UNK        -0.5274 
     30 CA        -74.6731   28.4149  -75.2777 C.3       8 UNK         0.0270 
     31 CB        -76.2084   28.3208  -75.3198 C.3       8 UNK        -0.1976 
     32 N         -74.1221   27.4491  -76.2332 N.am      8 UNK        -0.4313 
     33 C         -72.8750   26.9656  -76.2576 C.2       8 UNK         0.5041 
     34 O         -71.9930   27.3375  -75.4799 O.2       8 UNK        -0.5577 
     35 CA        -72.5716   25.9022  -77.3327 C.3       7 UNK         0.0284 
     36 CB        -71.0916   25.4761  -77.3397 C.3       7 UNK        -0.1958 
     37 N         -73.4076   24.7082  -77.1775 N.am      7 UNK        -0.4454 
     38 C         -74.7071   24.6185  -77.4888 C.2       7 UNK         0.5089 
     39 O         -75.3541   25.5545  -77.9614 O.2       7 UNK        -0.5125 
     40 CA        -75.4160   23.2795  -77.2173 C.3       6 UNK         0.0408 
     41 CB        -74.4713   22.0561  -77.2091 C.3       6 UNK        -0.1791 
     42 N         -76.2274   23.3338  -75.9960 N.am      6 UNK        -0.4762 
     43 C         -75.8005   23.5309  -74.7370 C.2       6 UNK         0.5007 
     44 O         -74.6159   23.6857  -74.4380 O.2       6 UNK        -0.5032 
     45 CA        -76.8578   23.5464  -73.6120 C.3       5 UNK         0.0783 
     46 C46       -76.8358   24.8904  -72.8401 C.3       11 UNK        -0.0857 
     47 S47       -77.9966   24.9037  -71.4272 S.3       11 UNK        -0.2512 
     48 C48       -77.0725   25.8570  -70.1759 C.3       11 UNK         0.0225 
     49 N         -78.2032   23.2422  -74.1101 N.am      5 UNK        -0.4615 
     50 C         -78.7492   22.0225  -74.1521 C.2       4 UNK         0.5053 
     51 O         -78.1355   20.9891  -73.8859 O.2       4 UNK        -0.5105 
     52 CA        -80.2319   21.9401  -74.5371 C.3       4 UNK         0.0263 
     53 CB        -81.1114   22.3568  -73.3461 C.3       4 UNK        -0.1981 
     54 N         -80.5495   22.7889  -75.6889 N.am      4 UNK        -0.4224 
     55 C         -81.0469   22.3393  -76.8510 C.2       3 UNK         0.4895 
     56 O         -81.2580   21.1495  -77.0902 O.2       3 UNK        -0.5091 
     57 CA        -81.3950   23.3766  -77.9374 C.3       3 UNK         0.0250 
     58 CB        -82.9084   23.6474  -77.9504 C.3       3 UNK        -0.1996 
     59 N         -80.6872   24.6489  -77.7903 N.am      3 UNK        -0.4254 
     60 C         -79.3769   24.8222  -78.0102 C.2       2 UNK         0.5004 
     61 O         -78.6373   23.9362  -78.4362 O.2       2 UNK        -0.5226 
     62 CA        -78.7801   26.2004  -77.6625 C.3       2 UNK         0.0269 
     63 CB        -78.5608   27.0340  -78.9344 C.3       2 UNK        -0.1926 
     64 N         -79.5547   26.9887  -76.6924 N.am      2 UNK        -0.4687 
     65 C         -79.8290   26.5912  -75.4428 C.2       1 UNK         0.5165 
     66 O         -79.5121   25.4823  -75.0050 O.2       1 UNK        -0.5079 
     67 H67       -82.5334   25.4796  -71.7465 H         1 UNK         0.0900 
     68 H68       -83.3740   24.4490  -72.9050 H         1 UNK         0.0900 
     69 H69       -84.0896   25.9855  -72.4136 H         1 UNK         0.0900 
     70 H70       -81.0217   26.9425  -72.5744 H         1 UNK         0.2959 
     71 H71       -81.2129   28.2102  -75.1235 H         1 UNK         0.1079 
     72 H72       -78.6693   27.9148  -73.4587 H         1 UNK         0.0837 
     73 H73       -79.0273   29.1612  -74.6275 H         1 UNK         0.0837 
     74 H74       -78.2209   31.0586  -72.7051 H         1 UNK         0.0685 
     75 H75       -78.8324   31.0082  -71.0687 H         1 UNK         0.0685 
     76 H76       -78.7873   27.8672  -70.7867 H         1 UNK         0.1434 
     77 H77       -74.6107   26.9419  -70.6399 H         1 UNK         0.1329 
     78 H78       -75.9007   30.7368  -72.1537 H         1 UNK         0.1335 
     79 H79       -72.9765   28.4819  -71.3433 H         1 UNK         0.0680 
     80 H80       -73.4945   29.5010  -72.6654 H         1 UNK         0.0680 
     81 H81       -70.9929   29.9826  -71.3049 H         1 UNK         0.1032 
     82 H82       -70.9284   31.3202  -70.1951 H         1 UNK         0.1032 
     83 H83       -71.7861   32.8465  -72.0726 H         1 UNK         0.0461 
     84 H84       -68.3579   33.7120  -71.7252 H         1 UNK         0.3453 
     85 H85       -69.9904   33.9952  -71.1802 H         1 UNK         0.3453 
     86 H86       -71.7802   30.3800  -73.5855 H         1 UNK         0.2984 
     87 H87       -72.8335   31.9125  -76.5630 H         1 UNK         0.0554 
     88 H88       -71.1211   30.5167  -77.7019 H         1 UNK         0.0847 
     89 H89       -70.1964   30.3890  -76.2052 H         1 UNK         0.0847 
     90 H90       -70.3814   31.9459  -77.0002 H         1 UNK         0.0847 
     91 H91       -72.2796   29.1723  -75.6609 H         1 UNK         0.3141 
     92 H92       -74.3566   28.1017  -74.2820 H         1 UNK         0.0743 
     93 H93       -76.6497   28.9503  -74.5472 H         1 UNK         0.0784 
     94 H94       -76.6080   28.6479  -76.2806 H         1 UNK         0.0784 
     95 H95       -76.5517   27.3021  -75.1443 H         1 UNK         0.0784 
     96 H96       -74.7689   27.0608  -76.9152 H         1 UNK         0.3213 
     97 H97       -72.7901   26.3550  -78.3025 H         1 UNK         0.0855 
     98 H98       -70.4382   26.3365  -77.4912 H         1 UNK         0.0814 
     99 H99       -70.8848   24.7698  -78.1439 H         1 UNK         0.0814 
    100 H100      -70.8012   25.0087  -76.3979 H         1 UNK         0.0814 
    101 H101      -72.9803   23.9172  -76.7175 H         1 UNK         0.3105 
    102 H102      -76.1133   23.1356  -78.0432 H         1 UNK         0.0547 
    103 H103      -73.8848   22.0090  -78.1277 H         1 UNK         0.0837 
    104 H104      -73.7725   22.0651  -76.3726 H         1 UNK         0.0837 
    105 H105      -75.0400   21.1283  -77.1475 H         1 UNK         0.0837 
    106 H106      -77.2241   23.2410  -76.1358 H         1 UNK         0.3020 
    107 H107      -76.5576   22.7640  -72.9110 H         1 UNK         0.1245 
    108 H108      -77.0969   25.7199  -73.4981 H         1 UNK         0.0781 
    109 H109      -75.8299   25.0975  -72.4698 H         1 UNK         0.0781 
    110 H110      -76.1693   25.3087  -69.9034 H         1 UNK         0.0836 
    111 H111      -77.6736   25.9301  -69.2686 H         1 UNK         0.0836 
    112 H112      -78.7685   24.0565  -74.3474 H         1 UNK         0.3022 
    113 H113      -80.4471   20.8929  -74.7601 H         1 UNK         0.0747 
    114 H114      -82.1703   22.2482  -73.5807 H         1 UNK         0.0793 
    115 H115      -80.9069   21.7358  -72.4729 H         1 UNK         0.0793 
    116 H116      -80.9349   23.3937  -73.0569 H         1 UNK         0.0793 
    117 H117      -80.3751   23.7831  -75.5833 H         1 UNK         0.3047 
    118 H118      -81.1170   22.9435  -78.9009 H         1 UNK         0.0822 
    119 H119      -83.1856   24.3177  -78.7642 H         1 UNK         0.0807 
    120 H120      -83.2454   24.0963  -77.0148 H         1 UNK         0.0807 
    121 H121      -83.4703   22.7226  -78.0891 H         1 UNK         0.0807 
    122 H122      -81.2196   25.4283  -77.4299 H         1 UNK         0.2946 
    123 H123      -77.8056   26.0071  -77.2102 H         1 UNK         0.1144 
    124 H124      -78.0345   27.9629  -78.7143 H         1 UNK         0.0793 
    125 H125      -79.5038   27.2848  -79.4215 H         1 UNK         0.0793 
    126 H126      -77.9534   26.4867  -79.6571 H         1 UNK         0.0793 
    127 H127      -79.8474   27.9082  -76.9920 H         1 UNK         0.2896 
@<TRIPOS>BOND
     1    1    2 1    
     2    1   67 1    
     3    1   68 1    
     4    1   69 1    
     5    2    3 2    
     6    2    4 am   BACKBONE|DICT|INTERRES
     7    4    5 1    
     8    4   70 1    
     9    5    6 1    
    10    5   65 1    
    11    5   71 1    
    12    6    7 1    
    13    6   72 1    
    14    6   73 1    
    15    7    8 1    
    16    8    9 1    
    17    8   74 1    
    18    8   75 1    
    19    9   10 ar   
    20    9   14 ar   
    21   10   11 ar   
    22   10   76 1    
    23   11   12 ar   
    24   11   48 1    
    25   12   13 ar   
    26   12   77 1    
    27   13   14 ar   
    28   13   15 1    
    29   14   78 1    
    30   15   16 1    
    31   15   79 1    
    32   15   80 1    
    33   16   17 1    
    34   17   18 1    
    35   17   81 1    
    36   17   82 1    
    37   18   19 1    
    38   18   22 1    
    39   18   83 1    
    40   19   20 am   BACKBONE|DICT|INTERRES
    41   19   21 2    
    42   20   84 1    
    43   20   85 1    
    44   22   23 am   BACKBONE|DICT|INTERRES
    45   22   86 1    
    46   23   24 2    
    47   23   25 1    
    48   25   26 1    
    49   25   27 1    
    50   25   87 1    
    51   26   88 1    
    52   26   89 1    
    53   26   90 1    
    54   27   28 am   BACKBONE|DICT|INTERRES
    55   27   91 1    
    56   28   29 2    
    57   28   30 1    
    58   30   31 1    
    59   30   32 1    
    60   30   92 1    
    61   31   93 1    
    62   31   94 1    
    63   31   95 1    
    64   32   33 am   BACKBONE|DICT|INTERRES
    65   32   96 1    
    66   33   34 2    
    67   33   35 1    
    68   35   36 1    
    69   35   37 1    
    70   35   97 1    
    71   36   98 1    
    72   36   99 1    
    73   36  100 1    
    74   37   38 am   BACKBONE|DICT|INTERRES
    75   37  101 1    
    76   38   39 2    
    77   38   40 1    
    78   40   41 1    
    79   40   42 1    
    80   40  102 1    
    81   41  103 1    
    82   41  104 1    
    83   41  105 1    
    84   42   43 am   BACKBONE|DICT|INTERRES
    85   42  106 1    
    86   43   44 2    
    87   43   45 1    
    88   45   46 1    
    89   45   49 1    
    90   45  107 1    
    91   46   47 1    
    92   46  108 1    
    93   46  109 1    
    94   47   48 1    
    95   48  110 1    
    96   48  111 1    
    97   49   50 am   BACKBONE|DICT|INTERRES
    98   49  112 1    
    99   50   51 2    
   100   50   52 1    
   101   52   53 1    
   102   52   54 1    
   103   52  113 1    
   104   53  114 1    
   105   53  115 1    
   106   53  116 1    
   107   54   55 am   BACKBONE|DICT|INTERRES
   108   54  117 1    
   109   55   56 2    
   110   55   57 1    
   111   57   58 1    
   112   57   59 1    
   113   57  118 1    
   114   58  119 1    
   115   58  120 1    
   116   58  121 1    
   117   59   60 am   BACKBONE|DICT|INTERRES
   118   59  122 1    
   119   60   61 2    
   120   60   62 1    
   121   62   63 1    
   122   62   64 1    
   123   62  123 1    
   124   63  124 1    
   125   63  125 1    
   126   63  126 1    
   127   64   65 am   BACKBONE|DICT|INTERRES
   128   64  127 1    
   129   65   66 2    
@<TRIPOS>SUBSTRUCTURE
     1 UNK         1 GROUP             0       ****    0 ROOT    
