@<TRIPOS>MOLECULE
3R135
127   129    1
SMALL
USER_CHARGES


@<TRIPOS>ATOM
      1 CA        -80.0557   26.9212  -71.9484 C.3       0 UNK        -0.1998 
      2 C         -80.3912   27.1664  -73.4114 C.2       0 UNK         0.4909 
      3 O         -81.4648   26.7715  -73.8700 O.2       0 UNK        -0.5240 
      4 N         -79.4867   27.8276  -74.1455 N.am      1 UNK        -0.4739 
      5 CA        -79.6097   28.1283  -75.5751 C.3       1 UNK         0.0864 
      6 C6        -78.4793   29.0475  -76.1023 C.3       11 UNK        -0.0881 
      7 S7        -78.2508   30.5723  -75.1235 S.3       11 UNK        -0.2682 
      8 C8        -76.5322   30.3812  -74.5499 C.3       11 UNK         0.0289 
      9 C9        -76.4303   29.5341  -73.2904 C.ar      11 UNK        -0.0687 
     10 C10       -76.4350   28.1382  -73.3702 C.ar      11 UNK        -0.0823 
     11 C11       -76.3298   27.3593  -72.2139 C.ar      11 UNK        -0.0830 
     12 C12       -76.1808   27.9889  -70.9748 C.ar      11 UNK        -0.1021 
     13 C13       -76.1566   29.3834  -70.8832 C.ar      11 UNK        -0.0753 
     14 C14       -76.2977   30.1504  -72.0429 C.ar      11 UNK        -0.0933 
     15 C15       -75.9928   30.0519  -69.5265 C.3       11 UNK         0.0166 
     16 S16       -74.2397   30.2249  -69.0619 S.3       11 UNK        -0.2615 
     17 C17       -73.7893   31.8078  -69.8611 C.3       11 UNK        -0.0865 
     18 CA        -72.3576   31.8436  -70.4717 C.3       10 UNK         0.0862 
     19 C         -71.2285   31.7738  -69.4084 C.2       10 UNK         0.5551 
     20 N         -71.1462   32.7578  -68.5230 N.am      10 UNK        -0.7319 
     21 O         -70.4234   30.8431  -69.3794 O.2       10 UNK        -0.5018 
     22 N         -72.1518   30.8451  -71.5266 N.am      10 UNK        -0.4509 
     23 C         -72.6853   30.8854  -72.7491 C.2       10 UNK         0.4899 
     24 O         -73.4549   31.7707  -73.1353 O.2       10 UNK        -0.4839 
     25 CA        -72.2816   29.7549  -73.7076 C.3       9 UNK         0.0222 
     26 CB        -72.6704   28.3686  -73.1535 C.3       9 UNK        -0.1966 
     27 N         -72.9330   30.0031  -74.9905 N.am      9 UNK        -0.4218 
     28 C         -72.6384   29.4386  -76.1644 C.2       9 UNK         0.5020 
     29 O         -71.7406   28.6088  -76.3310 O.2       9 UNK        -0.5274 
     30 CA        -73.4638   29.9230  -77.3710 C.3       8 UNK         0.0270 
     31 CB        -72.7013   31.0133  -78.1419 C.3       8 UNK        -0.1976 
     32 N         -73.7983   28.8297  -78.2862 N.am      8 UNK        -0.4313 
     33 C         -74.5808   27.7885  -77.9766 C.2       8 UNK         0.5041 
     34 O         -75.1662   27.6606  -76.8966 O.2       8 UNK        -0.5577 
     35 CA        -74.7281   26.7035  -79.0521 C.3       7 UNK         0.0284 
     36 CB        -73.3925   25.9575  -79.2600 C.3       7 UNK        -0.1958 
     37 N         -75.7604   25.7765  -78.6029 N.am      7 UNK        -0.4454 
     38 C         -76.3060   24.7645  -79.2859 C.2       7 UNK         0.5089 
     39 O         -76.0799   24.5414  -80.4765 O.2       7 UNK        -0.5125 
     40 CA        -77.2524   23.8405  -78.4883 C.3       6 UNK         0.0408 
     41 CB        -77.4101   22.4421  -79.1201 C.3       6 UNK        -0.1791 
     42 N         -76.8877   23.7400  -77.0673 N.am      6 UNK        -0.4762 
     43 C         -75.7237   23.2915  -76.5658 C.2       6 UNK         0.5007 
     44 O         -74.8216   22.7954  -77.2415 O.2       6 UNK        -0.5032 
     45 CA        -75.5292   23.4457  -75.0501 C.3       5 UNK         0.0783 
     46 C46       -75.2211   24.9192  -74.6858 C.3       11 UNK        -0.0857 
     47 S47       -74.8451   25.1206  -72.9117 S.3       11 UNK        -0.2512 
     48 C48       -76.3968   25.8415  -72.2923 C.3       11 UNK         0.0225 
     49 N         -76.6830   22.9139  -74.3232 N.am      5 UNK        -0.4615 
     50 C         -76.8994   21.6199  -74.0721 C.2       4 UNK         0.5053 
     51 O         -76.1621   20.7144  -74.4623 O.2       4 UNK        -0.5105 
     52 CA        -78.1297   21.2706  -73.2153 C.3       4 UNK         0.0263 
     53 CB        -77.9504   21.7544  -71.7612 C.3       4 UNK        -0.1981 
     54 N         -79.4160   21.7132  -73.7721 N.am      4 UNK        -0.4224 
     55 C         -79.8483   22.9632  -73.9863 C.2       3 UNK         0.4895 
     56 O         -79.1865   23.9778  -73.7556 O.2       3 UNK        -0.5091 
     57 CA        -81.2856   23.0991  -74.5046 C.3       3 UNK         0.0250 
     58 CB        -82.2464   23.4001  -73.3431 C.3       3 UNK        -0.1996 
     59 N         -81.3649   24.1751  -75.4894 N.am      3 UNK        -0.4254 
     60 C         -81.0880   24.0217  -76.7921 C.2       2 UNK         0.5004 
     61 O         -80.8129   22.9383  -77.3090 O.2       2 UNK        -0.5226 
     62 CA        -81.1266   25.2805  -77.6787 C.3       2 UNK         0.0269 
     63 CB        -82.4920   25.4043  -78.3740 C.3       2 UNK        -0.1926 
     64 N         -80.8442   26.5194  -76.9506 N.am      2 UNK        -0.4687 
     65 C         -79.6645   26.8230  -76.3927 C.2       1 UNK         0.5165 
     66 O         -78.6582   26.1148  -76.4804 O.2       1 UNK        -0.5079 
     67 H67       -79.8052   25.8719  -71.7943 H         1 UNK         0.0900 
     68 H68       -80.9115   27.1645  -71.3196 H         1 UNK         0.0900 
     69 H69       -79.2127   27.5279  -71.6188 H         1 UNK         0.0900 
     70 H70       -78.6316   28.1467  -73.7118 H         1 UNK         0.2959 
     71 H71       -80.5534   28.6621  -75.7064 H         1 UNK         0.1079 
     72 H72       -77.5354   28.5058  -76.1591 H         1 UNK         0.0837 
     73 H73       -78.6982   29.3487  -77.1284 H         1 UNK         0.0837 
     74 H74       -75.9236   29.9419  -75.3393 H         1 UNK         0.0685 
     75 H75       -76.1165   31.3732  -74.3662 H         1 UNK         0.0685 
     76 H76       -76.5174   27.6585  -74.3345 H         1 UNK         0.1434 
     77 H77       -76.0832   27.3943  -70.0767 H         1 UNK         0.1329 
     78 H78       -76.2869   31.2295  -71.9790 H         1 UNK         0.1335 
     79 H79       -76.4959   29.4542  -68.7648 H         1 UNK         0.0680 
     80 H80       -76.4815   31.0274  -69.5133 H         1 UNK         0.0680 
     81 H81       -73.9102   32.6051  -69.1263 H         1 UNK         0.1032 
     82 H82       -74.5135   32.0350  -70.6427 H         1 UNK         0.1032 
     83 H83       -72.2312   32.8173  -70.9496 H         1 UNK         0.0461 
     84 H84       -71.7902   33.5330  -68.5392 H         1 UNK         0.3453 
     85 H85       -70.4185   32.7278  -67.8258 H         1 UNK         0.3453 
     86 H86       -71.5072   30.1073  -71.2747 H         1 UNK         0.2984 
     87 H87       -71.2005   29.8012  -73.8519 H         1 UNK         0.0554 
     88 H88       -72.4665   27.5713  -73.8680 H         1 UNK         0.0847 
     89 H89       -73.7281   28.3232  -72.9017 H         1 UNK         0.0847 
     90 H90       -72.1143   28.1323  -72.2462 H         1 UNK         0.0847 
     91 H91       -73.6283   30.7382  -74.9402 H         1 UNK         0.3141 
     92 H92       -74.4012   30.3520  -77.0137 H         1 UNK         0.0743 
     93 H93       -72.4642   31.8572  -77.4926 H         1 UNK         0.0784 
     94 H94       -71.7593   30.6386  -78.5448 H         1 UNK         0.0784 
     95 H95       -73.2921   31.4017  -78.9718 H         1 UNK         0.0784 
     96 H96       -73.3321   28.8361  -79.1815 H         1 UNK         0.3213 
     97 H97       -75.0508   27.1706  -79.9846 H         1 UNK         0.0855 
     98 H98       -72.5984   26.6374  -79.5700 H         1 UNK         0.0814 
     99 H99       -73.4728   25.1935  -80.0330 H         1 UNK         0.0814 
    100 H100      -73.0629   25.4680  -78.3424 H         1 UNK         0.0814 
    101 H101      -76.0507   25.9430  -77.6449 H         1 UNK         0.3105 
    102 H102      -78.2292   24.3201  -78.5160 H         1 UNK         0.0547 
    103 H103      -77.8121   22.5136  -80.1313 H         1 UNK         0.0837 
    104 H104      -76.4578   21.9156  -79.1864 H         1 UNK         0.0837 
    105 H105      -78.0984   21.8244  -78.5432 H         1 UNK         0.0837 
    106 H106      -77.5463   24.1778  -76.4325 H         1 UNK         0.3020 
    107 H107      -74.6544   22.8491  -74.7793 H         1 UNK         0.1245 
    108 H108      -76.0502   25.5677  -74.9714 H         1 UNK         0.0781 
    109 H109      -74.3553   25.2786  -75.2460 H         1 UNK         0.0781 
    110 H110      -76.6009   25.4212  -71.3064 H         1 UNK         0.0836 
    111 H111      -77.2364   25.5429  -72.9200 H         1 UNK         0.0836 
    112 H112      -77.3937   23.5729  -74.0160 H         1 UNK         0.3022 
    113 H113      -78.1852   20.1811  -73.1852 H         1 UNK         0.0747 
    114 H114      -78.7720   21.4181  -71.1289 H         1 UNK         0.0793 
    115 H115      -77.0287   21.3598  -71.3315 H         1 UNK         0.0793 
    116 H116      -77.8988   22.8413  -71.6905 H         1 UNK         0.0793 
    117 H117      -80.0421   20.9597  -74.0219 H         1 UNK         0.3047 
    118 H118      -81.5945   22.1608  -74.9709 H         1 UNK         0.0822 
    119 H119      -83.2714   23.5165  -73.6956 H         1 UNK         0.0807 
    120 H120      -81.9688   24.3125  -72.8141 H         1 UNK         0.0807 
    121 H121      -82.2437   22.5889  -72.6139 H         1 UNK         0.0807 
    122 H122      -81.4984   25.1115  -75.1205 H         1 UNK         0.2946 
    123 H123      -80.3642   25.1617  -78.4502 H         1 UNK         0.1144 
    124 H124      -82.5099   26.2440  -79.0691 H         1 UNK         0.0793 
    125 H125      -83.3004   25.5442  -77.6550 H         1 UNK         0.0793 
    126 H126      -82.7195   24.5055  -78.9491 H         1 UNK         0.0793 
    127 H127      -81.6269   27.1399  -76.7988 H         1 UNK         0.2896 
@<TRIPOS>BOND
     1    1    2 1    
     2    1   67 1    
     3    1   68 1    
     4    1   69 1    
     5    2    3 2    
     6    2    4 am   BACKBONE|DICT|INTERRES
     7    4    5 1    
     8    4   70 1    
     9    5    6 1    
    10    5   65 1    
    11    5   71 1    
    12    6    7 1    
    13    6   72 1    
    14    6   73 1    
    15    7    8 1    
    16    8    9 1    
    17    8   74 1    
    18    8   75 1    
    19    9   10 ar   
    20    9   14 ar   
    21   10   11 ar   
    22   10   76 1    
    23   11   12 ar   
    24   11   48 1    
    25   12   13 ar   
    26   12   77 1    
    27   13   14 ar   
    28   13   15 1    
    29   14   78 1    
    30   15   16 1    
    31   15   79 1    
    32   15   80 1    
    33   16   17 1    
    34   17   18 1    
    35   17   81 1    
    36   17   82 1    
    37   18   19 1    
    38   18   22 1    
    39   18   83 1    
    40   19   20 am   BACKBONE|DICT|INTERRES
    41   19   21 2    
    42   20   84 1    
    43   20   85 1    
    44   22   23 am   BACKBONE|DICT|INTERRES
    45   22   86 1    
    46   23   24 2    
    47   23   25 1    
    48   25   26 1    
    49   25   27 1    
    50   25   87 1    
    51   26   88 1    
    52   26   89 1    
    53   26   90 1    
    54   27   28 am   BACKBONE|DICT|INTERRES
    55   27   91 1    
    56   28   29 2    
    57   28   30 1    
    58   30   31 1    
    59   30   32 1    
    60   30   92 1    
    61   31   93 1    
    62   31   94 1    
    63   31   95 1    
    64   32   33 am   BACKBONE|DICT|INTERRES
    65   32   96 1    
    66   33   34 2    
    67   33   35 1    
    68   35   36 1    
    69   35   37 1    
    70   35   97 1    
    71   36   98 1    
    72   36   99 1    
    73   36  100 1    
    74   37   38 am   BACKBONE|DICT|INTERRES
    75   37  101 1    
    76   38   39 2    
    77   38   40 1    
    78   40   41 1    
    79   40   42 1    
    80   40  102 1    
    81   41  103 1    
    82   41  104 1    
    83   41  105 1    
    84   42   43 am   BACKBONE|DICT|INTERRES
    85   42  106 1    
    86   43   44 2    
    87   43   45 1    
    88   45   46 1    
    89   45   49 1    
    90   45  107 1    
    91   46   47 1    
    92   46  108 1    
    93   46  109 1    
    94   47   48 1    
    95   48  110 1    
    96   48  111 1    
    97   49   50 am   BACKBONE|DICT|INTERRES
    98   49  112 1    
    99   50   51 2    
   100   50   52 1    
   101   52   53 1    
   102   52   54 1    
   103   52  113 1    
   104   53  114 1    
   105   53  115 1    
   106   53  116 1    
   107   54   55 am   BACKBONE|DICT|INTERRES
   108   54  117 1    
   109   55   56 2    
   110   55   57 1    
   111   57   58 1    
   112   57   59 1    
   113   57  118 1    
   114   58  119 1    
   115   58  120 1    
   116   58  121 1    
   117   59   60 am   BACKBONE|DICT|INTERRES
   118   59  122 1    
   119   60   61 2    
   120   60   62 1    
   121   62   63 1    
   122   62   64 1    
   123   62  123 1    
   124   63  124 1    
   125   63  125 1    
   126   63  126 1    
   127   64   65 am   BACKBONE|DICT|INTERRES
   128   64  127 1    
   129   65   66 2    
@<TRIPOS>SUBSTRUCTURE
     1 UNK         1 GROUP             0       ****    0 ROOT    
