@<TRIPOS>MOLECULE
3R135
127   129    1
SMALL
USER_CHARGES


@<TRIPOS>ATOM
      1 CA        -79.8600   21.8828  -71.5375 C.3       0 UNK        -0.1998 
      2 C         -80.0430   23.3149  -72.0158 C.2       0 UNK         0.4909 
      3 O         -79.1121   23.8768  -72.5918 O.2       0 UNK        -0.5240 
      4 N         -81.2401   23.8819  -71.7923 N.am      1 UNK        -0.4739 
      5 CA        -81.6816   25.2540  -72.1051 C.3       1 UNK         0.0864 
      6 C6        -81.4505   26.2745  -70.9515 C.3       11 UNK        -0.0881 
      7 S7        -79.7364   26.4452  -70.3414 S.3       11 UNK        -0.2682 
      8 C8        -79.6610   28.2122  -69.9046 C.3       11 UNK         0.0289 
      9 C9        -79.0152   29.0589  -70.9947 C.ar      11 UNK        -0.0687 
     10 C10       -79.7713   29.5344  -72.0703 C.ar      11 UNK        -0.0823 
     11 C11       -79.1935   30.3621  -73.0391 C.ar      11 UNK        -0.0830 
     12 C12       -77.8457   30.7149  -72.9170 C.ar      11 UNK        -0.1021 
     13 C13       -77.0661   30.2294  -71.8632 C.ar      11 UNK        -0.0753 
     14 C14       -77.6638   29.4060  -70.9003 C.ar      11 UNK        -0.0933 
     15 C15       -75.6022   30.6597  -71.7807 C.3       11 UNK         0.0166 
     16 S16       -74.4971   29.4837  -70.9287 S.3       11 UNK        -0.2615 
     17 C17       -72.8959   30.3469  -71.1087 C.3       11 UNK        -0.0865 
     18 CA        -71.8423   29.5602  -71.9323 C.3       10 UNK         0.0862 
     19 C         -71.2311   28.3754  -71.1263 C.2       10 UNK         0.5551 
     20 N         -71.3395   27.1300  -71.5698 N.am      10 UNK        -0.7319 
     21 O         -70.6263   28.5979  -70.0796 O.2       10 UNK        -0.5018 
     22 N         -72.3353   29.2202  -73.2772 N.am      10 UNK        -0.4509 
     23 C         -71.5519   29.0097  -74.3414 C.2       10 UNK         0.4899 
     24 O         -70.3252   29.1343  -74.3364 O.2       10 UNK        -0.4839 
     25 CA        -72.2646   28.5786  -75.6354 C.3       9 UNK         0.0222 
     26 CB        -71.7793   29.4020  -76.8412 C.3       9 UNK        -0.1966 
     27 N         -72.1113   27.1527  -75.9397 N.am      9 UNK        -0.4218 
     28 C         -72.3191   26.1139  -75.1171 C.2       9 UNK         0.5020 
     29 O         -72.6025   26.2134  -73.9235 O.2       9 UNK        -0.5274 
     30 CA        -72.2274   24.7204  -75.7597 C.3       8 UNK         0.0270 
     31 CB        -72.5163   23.5805  -74.7635 C.3       8 UNK        -0.1976 
     32 N         -73.1638   24.6128  -76.8774 N.am      8 UNK        -0.4313 
     33 C         -72.9158   24.9946  -78.1338 C.2       8 UNK         0.5041 
     34 O         -71.8658   25.5355  -78.4844 O.2       8 UNK        -0.5577 
     35 CA        -74.0292   24.7574  -79.1568 C.3       7 UNK         0.0284 
     36 CB        -74.5016   23.2903  -79.1678 C.3       7 UNK        -0.1958 
     37 N         -75.1687   25.6398  -78.8952 N.am      7 UNK        -0.4454 
     38 C         -75.5815   26.5922  -79.7423 C.2       7 UNK         0.5089 
     39 O         -74.9838   26.8960  -80.7760 O.2       7 UNK        -0.5125 
     40 CA        -76.9069   27.3032  -79.4335 C.3       6 UNK         0.0408 
     41 CB        -78.0722   26.5421  -80.0884 C.3       6 UNK        -0.1791 
     42 N         -77.1915   27.4597  -78.0080 N.am      6 UNK        -0.4762 
     43 C         -76.7899   28.5037  -77.2690 C.2       6 UNK         0.5007 
     44 O         -75.9767   29.3454  -77.6534 O.2       6 UNK        -0.5032 
     45 CA        -77.4344   28.6397  -75.8786 C.3       5 UNK         0.0783 
     46 C46       -78.9444   28.9957  -75.9698 C.3       11 UNK        -0.0857 
     47 S47       -79.2351   30.7881  -75.8264 S.3       11 UNK        -0.2512 
     48 C48       -80.0441   30.8968  -74.1903 C.3       11 UNK         0.0225 
     49 N         -77.2212   27.4192  -75.1110 N.am      5 UNK        -0.4615 
     50 C         -76.1643   27.1889  -74.3238 C.2       4 UNK         0.5053 
     51 O         -75.2740   28.0139  -74.1188 O.2       4 UNK        -0.5105 
     52 CA        -76.0893   25.8112  -73.6399 C.3       4 UNK         0.0263 
     53 CB        -76.4099   25.9465  -72.1455 C.3       4 UNK        -0.1981 
     54 N         -76.9793   24.8089  -74.2357 N.am      4 UNK        -0.4224 
     55 C         -76.8037   24.2648  -75.4476 C.2       3 UNK         0.4895 
     56 O         -75.8563   24.5243  -76.1892 O.2       3 UNK        -0.5091 
     57 CA        -77.8968   23.3109  -75.9462 C.3       3 UNK         0.0250 
     58 CB        -77.7360   21.9188  -75.3153 C.3       3 UNK        -0.1996 
     59 N         -79.2514   23.8152  -75.7074 N.am      3 UNK        -0.4254 
     60 C         -79.7627   24.9301  -76.2489 C.2       2 UNK         0.5004 
     61 O         -79.1243   25.6974  -76.9687 O.2       2 UNK        -0.5226 
     62 CA        -81.2298   25.2473  -75.9283 C.3       2 UNK         0.0269 
     63 CB        -82.1666   24.4719  -76.8684 C.3       2 UNK        -0.1926 
     64 N         -81.5696   24.9466  -74.5357 N.am      2 UNK        -0.4687 
     65 C         -81.2775   25.7586  -73.5092 C.2       1 UNK         0.5165 
     66 O         -80.7322   26.8522  -73.6502 O.2       1 UNK        -0.5079 
     67 H67       -79.6588   21.2272  -72.3841 H         1 UNK         0.0900 
     68 H68       -79.0142   21.8245  -70.8530 H         1 UNK         0.0900 
     69 H69       -80.7420   21.5079  -71.0185 H         1 UNK         0.0900 
     70 H70       -81.9413   23.3217  -71.3278 H         1 UNK         0.2959 
     71 H71       -82.7670   25.1675  -72.1842 H         1 UNK         0.1079 
     72 H72       -81.8339   27.2539  -71.2417 H         1 UNK         0.0837 
     73 H73       -82.0573   25.9777  -70.0950 H         1 UNK         0.0837 
     74 H74       -80.6584   28.5899  -69.6752 H         1 UNK         0.0685 
     75 H75       -79.0912   28.3082  -68.9792 H         1 UNK         0.0685 
     76 H76       -80.8148   29.2631  -72.1481 H         1 UNK         0.1434 
     77 H77       -77.3988   31.3703  -73.6519 H         1 UNK         0.1329 
     78 H78       -77.0844   29.0425  -70.0636 H         1 UNK         0.1335 
     79 H79       -75.5545   31.6235  -71.2715 H         1 UNK         0.0680 
     80 H80       -75.2128   30.8143  -72.7891 H         1 UNK         0.0680 
     81 H81       -73.0579   31.3179  -71.5787 H         1 UNK         0.1032 
     82 H82       -72.5141   30.5777  -70.1122 H         1 UNK         0.1032 
     83 H83       -71.0067   30.2485  -72.0749 H         1 UNK         0.0461 
     84 H84       -70.9326   26.3793  -71.0367 H         1 UNK         0.3453 
     85 H85       -71.8446   26.9226  -72.4304 H         1 UNK         0.3453 
     86 H86       -73.3225   28.9965  -73.3465 H         1 UNK         0.2984 
     87 H87       -73.3310   28.7749  -75.5267 H         1 UNK         0.0554 
     88 H88       -71.8747   30.4714  -76.6472 H         1 UNK         0.0847 
     89 H89       -72.3673   29.1834  -77.7331 H         1 UNK         0.0847 
     90 H90       -70.7313   29.2043  -77.0715 H         1 UNK         0.0847 
     91 H91       -71.8790   26.9208  -76.8995 H         1 UNK         0.3141 
     92 H92       -71.2054   24.5942  -76.1240 H         1 UNK         0.0743 
     93 H93       -71.8281   23.6157  -73.9178 H         1 UNK         0.0784 
     94 H94       -73.5297   23.6392  -74.3643 H         1 UNK         0.0784 
     95 H95       -72.3994   22.6045  -75.2347 H         1 UNK         0.0784 
     96 H96       -74.1145   24.3312  -76.6408 H         1 UNK         0.3213 
     97 H97       -73.5970   24.9600  -80.1395 H         1 UNK         0.0855 
     98 H98       -75.0046   23.0060  -78.2432 H         1 UNK         0.0814 
     99 H99       -73.6598   22.6101  -79.3050 H         1 UNK         0.0814 
    100 H100      -75.1970   23.1108  -79.9880 H         1 UNK         0.0814 
    101 H101      -75.6788   25.4835  -78.0321 H         1 UNK         0.3105 
    102 H102      -76.8624   28.2939  -79.8929 H         1 UNK         0.0547 
    103 H103      -79.0172   27.0684  -79.9509 H         1 UNK         0.0837 
    104 H104      -77.9157   26.4336  -81.1626 H         1 UNK         0.0837 
    105 H105      -78.1848   25.5397  -79.6717 H         1 UNK         0.0837 
    106 H106      -77.8630   26.8042  -77.6074 H         1 UNK         0.3020 
    107 H107      -76.9150   29.4520  -75.3650 H         1 UNK         0.1245 
    108 H108      -79.4973   28.5037  -75.1701 H         1 UNK         0.0781 
    109 H109      -79.4085   28.6348  -76.8899 H         1 UNK         0.0781 
    110 H110      -80.9958   30.3652  -74.2422 H         1 UNK         0.0836 
    111 H111      -80.2863   31.9409  -73.9883 H         1 UNK         0.0836 
    112 H112      -77.9007   26.6820  -75.2384 H         1 UNK         0.3022 
    113 H113      -75.0662   25.4488  -73.7371 H         1 UNK         0.0747 
    114 H114      -77.4102   26.3518  -71.9974 H         1 UNK         0.0793 
    115 H115      -76.3534   24.9868  -71.6321 H         1 UNK         0.0793 
    116 H116      -75.7089   26.6243  -71.6562 H         1 UNK         0.0793 
    117 H117      -77.7904   24.5289  -73.6829 H         1 UNK         0.3047 
    118 H118      -77.7722   23.2092  -77.0266 H         1 UNK         0.0822 
    119 H119      -76.7409   21.5162  -75.5104 H         1 UNK         0.0807 
    120 H120      -78.4564   21.2110  -75.7256 H         1 UNK         0.0807 
    121 H121      -77.8694   21.9457  -74.2332 H         1 UNK         0.0807 
    122 H122      -79.8289   23.2834  -75.0736 H         1 UNK         0.2946 
    123 H123      -81.3800   26.3149  -76.1085 H         1 UNK         0.1144 
    124 H124      -83.2089   24.7448  -76.7019 H         1 UNK         0.0793 
    125 H125      -82.0765   23.3931  -76.7355 H         1 UNK         0.0793 
    126 H126      -81.9388   24.6919  -77.9126 H         1 UNK         0.0793 
    127 H127      -82.0228   24.0640  -74.3459 H         1 UNK         0.2896 
@<TRIPOS>BOND
     1    1    2 1    
     2    1   67 1    
     3    1   68 1    
     4    1   69 1    
     5    2    3 2    
     6    2    4 am   BACKBONE|DICT|INTERRES
     7    4    5 1    
     8    4   70 1    
     9    5    6 1    
    10    5   65 1    
    11    5   71 1    
    12    6    7 1    
    13    6   72 1    
    14    6   73 1    
    15    7    8 1    
    16    8    9 1    
    17    8   74 1    
    18    8   75 1    
    19    9   10 ar   
    20    9   14 ar   
    21   10   11 ar   
    22   10   76 1    
    23   11   12 ar   
    24   11   48 1    
    25   12   13 ar   
    26   12   77 1    
    27   13   14 ar   
    28   13   15 1    
    29   14   78 1    
    30   15   16 1    
    31   15   79 1    
    32   15   80 1    
    33   16   17 1    
    34   17   18 1    
    35   17   81 1    
    36   17   82 1    
    37   18   19 1    
    38   18   22 1    
    39   18   83 1    
    40   19   20 am   BACKBONE|DICT|INTERRES
    41   19   21 2    
    42   20   84 1    
    43   20   85 1    
    44   22   23 am   BACKBONE|DICT|INTERRES
    45   22   86 1    
    46   23   24 2    
    47   23   25 1    
    48   25   26 1    
    49   25   27 1    
    50   25   87 1    
    51   26   88 1    
    52   26   89 1    
    53   26   90 1    
    54   27   28 am   BACKBONE|DICT|INTERRES
    55   27   91 1    
    56   28   29 2    
    57   28   30 1    
    58   30   31 1    
    59   30   32 1    
    60   30   92 1    
    61   31   93 1    
    62   31   94 1    
    63   31   95 1    
    64   32   33 am   BACKBONE|DICT|INTERRES
    65   32   96 1    
    66   33   34 2    
    67   33   35 1    
    68   35   36 1    
    69   35   37 1    
    70   35   97 1    
    71   36   98 1    
    72   36   99 1    
    73   36  100 1    
    74   37   38 am   BACKBONE|DICT|INTERRES
    75   37  101 1    
    76   38   39 2    
    77   38   40 1    
    78   40   41 1    
    79   40   42 1    
    80   40  102 1    
    81   41  103 1    
    82   41  104 1    
    83   41  105 1    
    84   42   43 am   BACKBONE|DICT|INTERRES
    85   42  106 1    
    86   43   44 2    
    87   43   45 1    
    88   45   46 1    
    89   45   49 1    
    90   45  107 1    
    91   46   47 1    
    92   46  108 1    
    93   46  109 1    
    94   47   48 1    
    95   48  110 1    
    96   48  111 1    
    97   49   50 am   BACKBONE|DICT|INTERRES
    98   49  112 1    
    99   50   51 2    
   100   50   52 1    
   101   52   53 1    
   102   52   54 1    
   103   52  113 1    
   104   53  114 1    
   105   53  115 1    
   106   53  116 1    
   107   54   55 am   BACKBONE|DICT|INTERRES
   108   54  117 1    
   109   55   56 2    
   110   55   57 1    
   111   57   58 1    
   112   57   59 1    
   113   57  118 1    
   114   58  119 1    
   115   58  120 1    
   116   58  121 1    
   117   59   60 am   BACKBONE|DICT|INTERRES
   118   59  122 1    
   119   60   61 2    
   120   60   62 1    
   121   62   63 1    
   122   62   64 1    
   123   62  123 1    
   124   63  124 1    
   125   63  125 1    
   126   63  126 1    
   127   64   65 am   BACKBONE|DICT|INTERRES
   128   64  127 1    
   129   65   66 2    
@<TRIPOS>SUBSTRUCTURE
     1 UNK         1 GROUP             0       ****    0 ROOT    
