@<TRIPOS>MOLECULE
3R135
127   129    1
SMALL
USER_CHARGES


@<TRIPOS>ATOM
      1 CA        -83.7574   27.4190  -72.1380 C.3       0 UNK        -0.1998 
      2 C         -83.2658   27.9139  -73.4899 C.2       0 UNK         0.4909 
      3 O         -84.0575   28.0312  -74.4255 O.2       0 UNK        -0.5240 
      4 N         -81.9624   28.2024  -73.5996 N.am      1 UNK        -0.4739 
      5 CA        -81.3117   28.6948  -74.8236 C.3       1 UNK         0.0864 
      6 C6        -79.9561   29.3830  -74.5289 C.3       11 UNK        -0.0881 
      7 S7        -80.0672   30.7261  -73.3002 S.3       11 UNK        -0.2682 
      8 C8        -78.3181   30.8713  -72.7801 C.3       11 UNK         0.0289 
      9 C9        -77.7355   29.6868  -72.0003 C.ar      11 UNK        -0.0687 
     10 C10       -78.5241   28.6463  -71.4894 C.ar      11 UNK        -0.0823 
     11 C11       -77.9493   27.5794  -70.7933 C.ar      11 UNK        -0.0830 
     12 C12       -76.5674   27.5732  -70.5794 C.ar      11 UNK        -0.1021 
     13 C13       -75.7642   28.6123  -71.0579 C.ar      11 UNK        -0.0753 
     14 C14       -76.3557   29.6611  -71.7695 C.ar      11 UNK        -0.0933 
     15 C15       -74.2699   28.6121  -70.7559 C.3       11 UNK         0.0166 
     16 S16       -73.2380   28.5643  -72.2562 S.3       11 UNK        -0.2615 
     17 C17       -72.8015   30.3260  -72.4904 C.3       11 UNK        -0.0865 
     18 CA        -73.0166   30.8212  -73.9506 C.3       10 UNK         0.0862 
     19 C         -72.7968   32.3568  -74.1048 C.2       10 UNK         0.5551 
     20 N         -72.2874   32.8419  -75.2307 N.am      10 UNK        -0.7319 
     21 O         -73.1215   33.1268  -73.2040 O.2       10 UNK        -0.5018 
     22 N         -72.3175   29.9955  -74.9519 N.am      10 UNK        -0.4509 
     23 C         -70.9952   29.7882  -75.0450 C.2       10 UNK         0.4899 
     24 O         -70.1659   30.3399  -74.3208 O.2       10 UNK        -0.4839 
     25 CA        -70.4982   28.7909  -76.1111 C.3       9 UNK         0.0222 
     26 CB        -69.7057   27.6479  -75.4525 C.3       9 UNK        -0.1966 
     27 N         -71.5998   28.2094  -76.8815 N.am      9 UNK        -0.4218 
     28 C         -72.0040   28.6273  -78.0901 C.2       9 UNK         0.5020 
     29 O         -71.4234   29.4940  -78.7448 O.2       9 UNK        -0.5274 
     30 CA        -73.2912   27.9965  -78.6622 C.3       8 UNK         0.0270 
     31 CB        -72.9481   26.8278  -79.6001 C.3       8 UNK        -0.1976 
     32 N         -74.2266   27.5297  -77.6339 N.am      8 UNK        -0.4313 
     33 C         -74.8009   28.3088  -76.7068 C.2       8 UNK         0.5041 
     34 O         -74.6846   29.5335  -76.6847 O.2       8 UNK        -0.5577 
     35 CA        -75.5845   27.6176  -75.5785 C.3       7 UNK         0.0284 
     36 CB        -77.0894   27.6983  -75.8578 C.3       7 UNK        -0.1958 
     37 N         -75.2260   26.2192  -75.3182 N.am      7 UNK        -0.4454 
     38 C         -74.0058   25.7427  -75.0243 C.2       7 UNK         0.5089 
     39 O         -72.9767   26.4169  -75.0771 O.2       7 UNK        -0.5125 
     40 CA        -73.9234   24.2478  -74.6629 C.3       6 UNK         0.0408 
     41 CB        -72.7179   23.9152  -73.7584 C.3       6 UNK        -0.1791 
     42 N         -75.1852   23.7251  -74.1198 N.am      6 UNK        -0.4762 
     43 C         -75.7572   24.0135  -72.9362 C.2       6 UNK         0.5007 
     44 O         -75.2141   24.7068  -72.0773 O.2       6 UNK        -0.5032 
     45 CA        -77.1776   23.4541  -72.6688 C.3       5 UNK         0.0783 
     46 C46       -78.1712   24.5610  -72.2172 C.3       11 UNK        -0.0857 
     47 S47       -78.1630   24.7908  -70.4080 S.3       11 UNK        -0.2512 
     48 C48       -78.8458   26.4743  -70.2367 C.3       11 UNK         0.0225 
     49 N         -77.7073   22.7235  -73.8251 N.am      5 UNK        -0.4615 
     50 C         -77.4837   21.4275  -74.0876 C.2       4 UNK         0.5053 
     51 O         -76.8657   20.6783  -73.3317 O.2       4 UNK        -0.5105 
     52 CA        -78.0073   20.8702  -75.4273 C.3       4 UNK         0.0263 
     53 CB        -79.3144   20.0918  -75.2066 C.3       4 UNK        -0.1981 
     54 N         -78.2295   21.8938  -76.4534 N.am      4 UNK        -0.4224 
     55 C         -77.2847   22.6847  -76.9839 C.2       3 UNK         0.4895 
     56 O         -76.0859   22.5833  -76.7260 O.2       3 UNK        -0.5091 
     57 CA        -77.7622   23.8286  -77.8983 C.3       3 UNK         0.0250 
     58 CB        -77.6527   23.4187  -79.3751 C.3       3 UNK        -0.1996 
     59 N         -79.1294   24.2887  -77.6166 N.am      3 UNK        -0.4254 
     60 C         -79.5407   24.8000  -76.4475 C.2       2 UNK         0.5004 
     61 O         -78.8113   24.9205  -75.4595 O.2       2 UNK        -0.5226 
     62 CA        -81.0310   25.1465  -76.3362 C.3       2 UNK         0.0269 
     63 CB        -81.8021   23.9580  -75.7384 C.3       2 UNK        -0.1926 
     64 N         -81.2306   26.3150  -75.4811 N.am      2 UNK        -0.4687 
     65 C         -81.1207   27.5879  -75.8866 C.2       1 UNK         0.5165 
     66 O         -80.8756   27.9073  -77.0510 O.2       1 UNK        -0.5079 
     67 H67       -84.1915   26.4245  -72.2379 H         1 UNK         0.0900 
     68 H68       -84.5248   28.0885  -71.7505 H         1 UNK         0.0900 
     69 H69       -82.9528   27.3658  -71.4047 H         1 UNK         0.0900 
     70 H70       -81.3646   28.1126  -72.7925 H         1 UNK         0.2959 
     71 H71       -81.9707   29.4418  -75.2725 H         1 UNK         0.1079 
     72 H72       -79.2394   28.6452  -74.1715 H         1 UNK         0.0837 
     73 H73       -79.5359   29.8056  -75.4437 H         1 UNK         0.0837 
     74 H74       -77.7114   31.0479  -73.6699 H         1 UNK         0.0685 
     75 H75       -78.2243   31.7649  -72.1617 H         1 UNK         0.0685 
     76 H76       -79.5947   28.6616  -71.6218 H         1 UNK         0.1434 
     77 H77       -76.1164   26.7601  -70.0271 H         1 UNK         0.1329 
     78 H78       -75.7391   30.4682  -72.1387 H         1 UNK         0.1335 
     79 H79       -74.0193   29.4781  -70.1425 H         1 UNK         0.0680 
     80 H80       -74.0102   27.7396  -70.1544 H         1 UNK         0.0680 
     81 H81       -71.7626   30.4652  -72.1884 H         1 UNK         0.1032 
     82 H82       -73.3896   30.9335  -71.8014 H         1 UNK         0.1032 
     83 H83       -74.0754   30.6831  -74.1722 H         1 UNK         0.0461 
     84 H84       -72.1575   33.8364  -75.3288 H         1 UNK         0.3453 
     85 H85       -72.0322   32.2197  -75.9807 H         1 UNK         0.3453 
     86 H86       -72.9279   29.5635  -75.6350 H         1 UNK         0.2984 
     87 H87       -69.8215   29.3334  -76.7741 H         1 UNK         0.0554 
     88 H88       -69.3376   26.9401  -76.1952 H         1 UNK         0.0847 
     89 H89       -70.3161   27.0959  -74.7362 H         1 UNK         0.0847 
     90 H90       -68.8380   28.0306  -74.9136 H         1 UNK         0.0847 
     91 H91       -72.1488   27.5056  -76.3902 H         1 UNK         0.3141 
     92 H92       -73.8003   28.7673  -79.2447 H         1 UNK         0.0743 
     93 H93       -72.4560   26.0130  -79.0674 H         1 UNK         0.0784 
     94 H94       -73.8414   26.4267  -80.0796 H         1 UNK         0.0784 
     95 H95       -72.2741   27.1511  -80.3948 H         1 UNK         0.0784 
     96 H96       -74.3723   26.5331  -77.5682 H         1 UNK         0.3213 
     97 H97       -75.3767   28.1716  -74.6600 H         1 UNK         0.0855 
     98 H98       -77.3659   27.1517  -76.7602 H         1 UNK         0.0814 
     99 H99       -77.4046   28.7333  -75.9930 H         1 UNK         0.0814 
    100 H100      -77.6599   27.2843  -75.0275 H         1 UNK         0.0814 
    101 H101      -75.9978   25.5712  -75.2514 H         1 UNK         0.3105 
    102 H102      -73.7706   23.7234  -75.6069 H         1 UNK         0.0547 
    103 H103      -71.7790   24.1386  -74.2664 H         1 UNK         0.0837 
    104 H104      -72.7272   24.4976  -72.8367 H         1 UNK         0.0837 
    105 H105      -72.6984   22.8589  -73.4915 H         1 UNK         0.0837 
    106 H106      -75.7034   23.1393  -74.7663 H         1 UNK         0.3020 
    107 H107      -77.0672   22.7390  -71.8501 H         1 UNK         0.1245 
    108 H108      -79.1934   24.2927  -72.4897 H         1 UNK         0.0781 
    109 H109      -77.9728   25.5079  -72.7244 H         1 UNK         0.0781 
    110 H110      -79.0156   26.6722  -69.1777 H         1 UNK         0.0836 
    111 H111      -79.8270   26.4952  -70.7135 H         1 UNK         0.0836 
    112 H112      -78.2067   23.2926  -74.5022 H         1 UNK         0.3022 
    113 H113      -77.2531   20.1780  -75.8077 H         1 UNK         0.0747 
    114 H114      -79.6550   19.6168  -76.1269 H         1 UNK         0.0793 
    115 H115      -79.1777   19.3002  -74.4682 H         1 UNK         0.0793 
    116 H116      -80.1143   20.7396  -74.8451 H         1 UNK         0.0793 
    117 H117      -79.1863   22.0509  -76.7329 H         1 UNK         0.3047 
    118 H118      -77.0922   24.6741  -77.7289 H         1 UNK         0.0822 
    119 H119      -77.8904   24.2514  -80.0375 H         1 UNK         0.0807 
    120 H120      -78.3235   22.5933  -79.6171 H         1 UNK         0.0807 
    121 H121      -76.6387   23.0960  -79.6166 H         1 UNK         0.0807 
    122 H122      -79.7944   24.2050  -78.3727 H         1 UNK         0.2946 
    123 H123      -81.4269   25.3603  -77.3320 H         1 UNK         0.1144 
    124 H124      -81.7136   23.0733  -76.3703 H         1 UNK         0.0793 
    125 H125      -82.8652   24.1820  -75.6468 H         1 UNK         0.0793 
    126 H126      -81.4301   23.6902  -74.7481 H         1 UNK         0.0793 
    127 H127      -81.3923   26.1399  -74.5007 H         1 UNK         0.2896 
@<TRIPOS>BOND
     1    1    2 1    
     2    1   67 1    
     3    1   68 1    
     4    1   69 1    
     5    2    3 2    
     6    2    4 am   BACKBONE|DICT|INTERRES
     7    4    5 1    
     8    4   70 1    
     9    5    6 1    
    10    5   65 1    
    11    5   71 1    
    12    6    7 1    
    13    6   72 1    
    14    6   73 1    
    15    7    8 1    
    16    8    9 1    
    17    8   74 1    
    18    8   75 1    
    19    9   10 ar   
    20    9   14 ar   
    21   10   11 ar   
    22   10   76 1    
    23   11   12 ar   
    24   11   48 1    
    25   12   13 ar   
    26   12   77 1    
    27   13   14 ar   
    28   13   15 1    
    29   14   78 1    
    30   15   16 1    
    31   15   79 1    
    32   15   80 1    
    33   16   17 1    
    34   17   18 1    
    35   17   81 1    
    36   17   82 1    
    37   18   19 1    
    38   18   22 1    
    39   18   83 1    
    40   19   20 am   BACKBONE|DICT|INTERRES
    41   19   21 2    
    42   20   84 1    
    43   20   85 1    
    44   22   23 am   BACKBONE|DICT|INTERRES
    45   22   86 1    
    46   23   24 2    
    47   23   25 1    
    48   25   26 1    
    49   25   27 1    
    50   25   87 1    
    51   26   88 1    
    52   26   89 1    
    53   26   90 1    
    54   27   28 am   BACKBONE|DICT|INTERRES
    55   27   91 1    
    56   28   29 2    
    57   28   30 1    
    58   30   31 1    
    59   30   32 1    
    60   30   92 1    
    61   31   93 1    
    62   31   94 1    
    63   31   95 1    
    64   32   33 am   BACKBONE|DICT|INTERRES
    65   32   96 1    
    66   33   34 2    
    67   33   35 1    
    68   35   36 1    
    69   35   37 1    
    70   35   97 1    
    71   36   98 1    
    72   36   99 1    
    73   36  100 1    
    74   37   38 am   BACKBONE|DICT|INTERRES
    75   37  101 1    
    76   38   39 2    
    77   38   40 1    
    78   40   41 1    
    79   40   42 1    
    80   40  102 1    
    81   41  103 1    
    82   41  104 1    
    83   41  105 1    
    84   42   43 am   BACKBONE|DICT|INTERRES
    85   42  106 1    
    86   43   44 2    
    87   43   45 1    
    88   45   46 1    
    89   45   49 1    
    90   45  107 1    
    91   46   47 1    
    92   46  108 1    
    93   46  109 1    
    94   47   48 1    
    95   48  110 1    
    96   48  111 1    
    97   49   50 am   BACKBONE|DICT|INTERRES
    98   49  112 1    
    99   50   51 2    
   100   50   52 1    
   101   52   53 1    
   102   52   54 1    
   103   52  113 1    
   104   53  114 1    
   105   53  115 1    
   106   53  116 1    
   107   54   55 am   BACKBONE|DICT|INTERRES
   108   54  117 1    
   109   55   56 2    
   110   55   57 1    
   111   57   58 1    
   112   57   59 1    
   113   57  118 1    
   114   58  119 1    
   115   58  120 1    
   116   58  121 1    
   117   59   60 am   BACKBONE|DICT|INTERRES
   118   59  122 1    
   119   60   61 2    
   120   60   62 1    
   121   62   63 1    
   122   62   64 1    
   123   62  123 1    
   124   63  124 1    
   125   63  125 1    
   126   63  126 1    
   127   64   65 am   BACKBONE|DICT|INTERRES
   128   64  127 1    
   129   65   66 2    
@<TRIPOS>SUBSTRUCTURE
     1 UNK         1 GROUP             0       ****    0 ROOT    
