@<TRIPOS>MOLECULE
3R135
127   129    1
SMALL
USER_CHARGES


@<TRIPOS>ATOM
      1 CA        -82.9618   26.1521  -69.2132 C.3       0 UNK        -0.1998 
      2 C         -83.0281   25.9355  -70.7174 C.2       0 UNK         0.4909 
      3 O         -83.9828   25.3328  -71.2086 O.2       0 UNK        -0.5240 
      4 N         -82.0182   26.4191  -71.4528 N.am      1 UNK        -0.4739 
      5 CA        -81.9261   26.3111  -72.9161 C.3       1 UNK         0.0864 
      6 C6        -80.9813   27.3798  -73.5190 C.3       11 UNK        -0.0881 
      7 S7        -81.5774   29.0809  -73.2451 S.3       11 UNK        -0.2682 
      8 C8        -80.4161   29.6973  -71.9856 C.3       11 UNK         0.0289 
      9 C9        -78.9849   29.7740  -72.5007 C.ar      11 UNK        -0.0687 
     10 C10       -78.6393   30.7065  -73.4841 C.ar      11 UNK        -0.0823 
     11 C11       -77.3193   30.8113  -73.9350 C.ar      11 UNK        -0.0830 
     12 C12       -76.3427   29.9720  -73.3900 C.ar      11 UNK        -0.1021 
     13 C13       -76.6771   29.0329  -72.4106 C.ar      11 UNK        -0.0753 
     14 C14       -77.9994   28.9356  -71.9707 C.ar      11 UNK        -0.0933 
     15 C15       -75.5971   28.1563  -71.8023 C.3       11 UNK         0.0166 
     16 S16       -74.8069   29.0248  -70.4137 S.3       11 UNK        -0.2615 
     17 C17       -73.1916   28.1867  -70.3089 C.3       11 UNK        -0.0865 
     18 CA        -72.0848   28.9804  -71.0548 C.3       10 UNK         0.0862 
     19 C         -70.6618   28.4870  -70.6562 C.2       10 UNK         0.5551 
     20 N         -69.8027   28.0940  -71.5888 N.am      10 UNK        -0.7319 
     21 O         -70.3266   28.4705  -69.4744 O.2       10 UNK        -0.5018 
     22 N         -72.3363   28.9981  -72.5058 N.am      10 UNK        -0.4509 
     23 C         -71.9559   29.9561  -73.3586 C.2       10 UNK         0.4899 
     24 O         -71.3741   30.9867  -73.0183 O.2       10 UNK        -0.4839 
     25 CA        -72.2433   29.6768  -74.8466 C.3       9 UNK         0.0222 
     26 CB        -71.5514   30.6808  -75.7873 C.3       9 UNK        -0.1966 
     27 N         -71.8105   28.3177  -75.1852 N.am      9 UNK        -0.4218 
     28 C         -72.6161   27.2540  -75.2709 C.2       9 UNK         0.5020 
     29 O         -73.8449   27.3006  -75.1714 O.2       9 UNK        -0.5274 
     30 CA        -71.9297   25.8954  -75.4227 C.3       8 UNK         0.0270 
     31 CB        -71.6642   25.2671  -74.0408 C.3       8 UNK        -0.1976 
     32 N         -72.8149   25.0477  -76.2058 N.am      8 UNK        -0.4313 
     33 C         -72.4804   23.9251  -76.8503 C.2       8 UNK         0.5041 
     34 O         -71.3640   23.4066  -76.8028 O.2       8 UNK        -0.5577 
     35 CA        -73.5781   23.2864  -77.7172 C.3       7 UNK         0.0284 
     36 CB        -74.3837   22.2648  -76.8997 C.3       7 UNK        -0.1958 
     37 N         -74.4846   24.2917  -78.2811 N.am      7 UNK        -0.4454 
     38 C         -74.1484   25.1235  -79.2790 C.2       7 UNK         0.5089 
     39 O         -73.0699   25.0781  -79.8717 O.2       7 UNK        -0.5125 
     40 CA        -75.1664   26.1997  -79.6718 C.3       6 UNK         0.0408 
     41 CB        -76.2434   25.6088  -80.5960 C.3       6 UNK        -0.1791 
     42 N         -75.8089   26.7840  -78.4938 N.am      6 UNK        -0.4762 
     43 C         -75.8012   28.0861  -78.1665 C.2       6 UNK         0.5007 
     44 O         -75.1565   28.9308  -78.7903 O.2       6 UNK        -0.5032 
     45 CA        -76.6794   28.5192  -76.9602 C.3       5 UNK         0.0783 
     46 C46       -77.2164   29.9742  -77.0777 C.3       11 UNK        -0.0857 
     47 S47       -76.0345   31.1903  -76.4013 S.3       11 UNK        -0.2512 
     48 C48       -76.9500   31.8642  -74.9751 C.3       11 UNK         0.0225 
     49 N         -77.7362   27.5435  -76.6627 N.am      5 UNK        -0.4615 
     50 C         -78.7529   27.1888  -77.4630 C.2       4 UNK         0.5053 
     51 O         -79.0587   27.8042  -78.4846 O.2       4 UNK        -0.5105 
     52 CA        -79.5334   25.9065  -77.0922 C.3       4 UNK         0.0263 
     53 CB        -79.7681   25.0106  -78.3260 C.3       4 UNK        -0.1981 
     54 N         -78.9504   25.1109  -75.9977 N.am      4 UNK        -0.4224 
     55 C         -77.7287   24.5528  -75.9357 C.2       3 UNK         0.4895 
     56 O         -76.8930   24.6412  -76.8380 O.2       3 UNK        -0.5091 
     57 CA        -77.3282   23.8533  -74.6236 C.3       3 UNK         0.0250 
     58 CB        -76.2297   24.6643  -73.9117 C.3       3 UNK        -0.1996 
     59 N         -78.4514   23.6660  -73.7008 N.am      3 UNK        -0.4254 
     60 C         -79.3217   22.6478  -73.7557 C.2       2 UNK         0.5004 
     61 O         -79.2362   21.7124  -74.5514 O.2       2 UNK        -0.5226 
     62 CA        -80.5075   22.7019  -72.7747 C.3       2 UNK         0.0269 
     63 CB        -80.1530   21.9927  -71.4578 C.3       2 UNK        -0.1926 
     64 N         -80.9726   24.0649  -72.4836 N.am      2 UNK        -0.4687 
     65 C         -81.4958   24.9065  -73.3894 C.2       1 UNK         0.5165 
     66 O         -81.6072   24.6233  -74.5822 O.2       1 UNK        -0.5079 
     67 H67       -83.8313   26.7166  -68.8775 H         1 UNK         0.0900 
     68 H68       -82.9574   25.1932  -68.6957 H         1 UNK         0.0900 
     69 H69       -82.0676   26.7011  -68.9185 H         1 UNK         0.0900 
     70 H70       -81.2655   26.9148  -70.9983 H         1 UNK         0.2959 
     71 H71       -82.9234   26.4762  -73.3311 H         1 UNK         0.1079 
     72 H72       -79.9683   27.2618  -73.1331 H         1 UNK         0.0837 
     73 H73       -80.9031   27.2574  -74.6002 H         1 UNK         0.0837 
     74 H74       -80.7345   30.6930  -71.6740 H         1 UNK         0.0685 
     75 H75       -80.4797   29.0671  -71.0977 H         1 UNK         0.0685 
     76 H76       -79.4026   31.3580  -73.8877 H         1 UNK         0.1434 
     77 H77       -75.3165   30.0599  -73.7176 H         1 UNK         0.1329 
     78 H78       -78.2541   28.2215  -71.1997 H         1 UNK         0.1335 
     79 H79       -76.0161   27.2125  -71.4502 H         1 UNK         0.0680 
     80 H80       -74.8624   27.9017  -72.5665 H         1 UNK         0.0680 
     81 H81       -72.9535   28.0973  -69.2471 H         1 UNK         0.1032 
     82 H82       -73.2673   27.1648  -70.6852 H         1 UNK         0.1032 
     83 H83       -72.1315   30.0120  -70.7000 H         1 UNK         0.0461 
     84 H84       -70.0525   28.1333  -72.5618 H         1 UNK         0.3453 
     85 H85       -68.8843   27.7834  -71.3131 H         1 UNK         0.3453 
     86 H86       -72.8008   28.1867  -72.8842 H         1 UNK         0.2984 
     87 H87       -73.3202   29.7784  -74.9938 H         1 UNK         0.0554 
     88 H88       -71.8879   31.6990  -75.5870 H         1 UNK         0.0847 
     89 H89       -71.7824   30.4667  -76.8310 H         1 UNK         0.0847 
     90 H90       -70.4669   30.6655  -75.6723 H         1 UNK         0.0847 
     91 H91       -70.8131   28.1771  -75.2699 H         1 UNK         0.3141 
     92 H92       -70.9892   26.0229  -75.9630 H         1 UNK         0.0743 
     93 H93       -72.5901   25.1152  -73.4841 H         1 UNK         0.0784 
     94 H94       -71.1683   24.3006  -74.1308 H         1 UNK         0.0784 
     95 H95       -71.0179   25.9033  -73.4353 H         1 UNK         0.0784 
     96 H96       -73.7490   25.4238  -76.3134 H         1 UNK         0.3213 
     97 H97       -73.0920   22.7583  -78.5407 H         1 UNK         0.0855 
     98 H98       -74.8433   22.7235  -76.0250 H         1 UNK         0.0814 
     99 H99       -73.7399   21.4599  -76.5427 H         1 UNK         0.0814 
    100 H100      -75.1740   21.8092  -77.4964 H         1 UNK         0.0814 
    101 H101      -75.3986   24.3794  -77.8411 H         1 UNK         0.3105 
    102 H102      -74.6279   26.9667  -80.2321 H         1 UNK         0.0547 
    103 H103      -75.7967   25.1971  -81.5020 H         1 UNK         0.0837 
    104 H104      -76.7975   24.8045  -80.1112 H         1 UNK         0.0837 
    105 H105      -76.9606   26.3697  -80.9043 H         1 UNK         0.0837 
    106 H106      -76.3407   26.1464  -77.9084 H         1 UNK         0.3020 
    107 H107      -76.0165   28.4726  -76.0946 H         1 UNK         0.1245 
    108 H108      -78.1587   30.0733  -76.5368 H         1 UNK         0.0781 
    109 H109      -77.4524   30.2337  -78.1115 H         1 UNK         0.0781 
    110 H110      -77.8405   32.3753  -75.3446 H         1 UNK         0.0836 
    111 H111      -76.3366   32.6279  -74.4954 H         1 UNK         0.0836 
    112 H112      -77.5776   26.9799  -75.8411 H         1 UNK         0.3022 
    113 H113      -80.5102   26.2408  -76.7412 H         1 UNK         0.0747 
    114 H114      -80.3624   24.1338  -78.0688 H         1 UNK         0.0793 
    115 H115      -80.3084   25.5463  -79.1075 H         1 UNK         0.0793 
    116 H116      -78.8303   24.6633  -78.7591 H         1 UNK         0.0793 
    117 H117      -79.5839   24.9332  -75.2282 H         1 UNK         0.3047 
    118 H118      -76.9199   22.8758  -74.8874 H         1 UNK         0.0822 
    119 H119      -75.8869   24.1593  -73.0085 H         1 UNK         0.0807 
    120 H120      -76.5760   25.6591  -73.6285 H         1 UNK         0.0807 
    121 H121      -75.3571   24.7975  -74.5524 H         1 UNK         0.0807 
    122 H122      -78.5895   24.3741  -72.9943 H         1 UNK         0.2946 
    123 H123      -81.3350   22.1629  -73.2423 H         1 UNK         0.1144 
    124 H124      -81.0142   21.9395  -70.7914 H         1 UNK         0.0793 
    125 H125      -79.3475   22.5018  -70.9271 H         1 UNK         0.0793 
    126 H126      -79.8255   20.9685  -71.6422 H         1 UNK         0.0793 
    127 H127      -80.9199   24.3735  -71.5235 H         1 UNK         0.2896 
@<TRIPOS>BOND
     1    1    2 1    
     2    1   67 1    
     3    1   68 1    
     4    1   69 1    
     5    2    3 2    
     6    2    4 am   BACKBONE|DICT|INTERRES
     7    4    5 1    
     8    4   70 1    
     9    5    6 1    
    10    5   65 1    
    11    5   71 1    
    12    6    7 1    
    13    6   72 1    
    14    6   73 1    
    15    7    8 1    
    16    8    9 1    
    17    8   74 1    
    18    8   75 1    
    19    9   10 ar   
    20    9   14 ar   
    21   10   11 ar   
    22   10   76 1    
    23   11   12 ar   
    24   11   48 1    
    25   12   13 ar   
    26   12   77 1    
    27   13   14 ar   
    28   13   15 1    
    29   14   78 1    
    30   15   16 1    
    31   15   79 1    
    32   15   80 1    
    33   16   17 1    
    34   17   18 1    
    35   17   81 1    
    36   17   82 1    
    37   18   19 1    
    38   18   22 1    
    39   18   83 1    
    40   19   20 am   BACKBONE|DICT|INTERRES
    41   19   21 2    
    42   20   84 1    
    43   20   85 1    
    44   22   23 am   BACKBONE|DICT|INTERRES
    45   22   86 1    
    46   23   24 2    
    47   23   25 1    
    48   25   26 1    
    49   25   27 1    
    50   25   87 1    
    51   26   88 1    
    52   26   89 1    
    53   26   90 1    
    54   27   28 am   BACKBONE|DICT|INTERRES
    55   27   91 1    
    56   28   29 2    
    57   28   30 1    
    58   30   31 1    
    59   30   32 1    
    60   30   92 1    
    61   31   93 1    
    62   31   94 1    
    63   31   95 1    
    64   32   33 am   BACKBONE|DICT|INTERRES
    65   32   96 1    
    66   33   34 2    
    67   33   35 1    
    68   35   36 1    
    69   35   37 1    
    70   35   97 1    
    71   36   98 1    
    72   36   99 1    
    73   36  100 1    
    74   37   38 am   BACKBONE|DICT|INTERRES
    75   37  101 1    
    76   38   39 2    
    77   38   40 1    
    78   40   41 1    
    79   40   42 1    
    80   40  102 1    
    81   41  103 1    
    82   41  104 1    
    83   41  105 1    
    84   42   43 am   BACKBONE|DICT|INTERRES
    85   42  106 1    
    86   43   44 2    
    87   43   45 1    
    88   45   46 1    
    89   45   49 1    
    90   45  107 1    
    91   46   47 1    
    92   46  108 1    
    93   46  109 1    
    94   47   48 1    
    95   48  110 1    
    96   48  111 1    
    97   49   50 am   BACKBONE|DICT|INTERRES
    98   49  112 1    
    99   50   51 2    
   100   50   52 1    
   101   52   53 1    
   102   52   54 1    
   103   52  113 1    
   104   53  114 1    
   105   53  115 1    
   106   53  116 1    
   107   54   55 am   BACKBONE|DICT|INTERRES
   108   54  117 1    
   109   55   56 2    
   110   55   57 1    
   111   57   58 1    
   112   57   59 1    
   113   57  118 1    
   114   58  119 1    
   115   58  120 1    
   116   58  121 1    
   117   59   60 am   BACKBONE|DICT|INTERRES
   118   59  122 1    
   119   60   61 2    
   120   60   62 1    
   121   62   63 1    
   122   62   64 1    
   123   62  123 1    
   124   63  124 1    
   125   63  125 1    
   126   63  126 1    
   127   64   65 am   BACKBONE|DICT|INTERRES
   128   64  127 1    
   129   65   66 2    
@<TRIPOS>SUBSTRUCTURE
     1 UNK         1 GROUP             0       ****    0 ROOT    
