@<TRIPOS>MOLECULE
3R135
127   129    1
SMALL
USER_CHARGES


@<TRIPOS>ATOM
      1 CA        -85.3835   27.2920  -71.4421 C.3       0 UNK        -0.1998 
      2 C         -84.1960   26.3575  -71.6203 C.2       0 UNK         0.4909 
      3 O         -84.0428   25.4143  -70.8435 O.2       0 UNK        -0.5240 
      4 N         -83.3604   26.6184  -72.6353 N.am      1 UNK        -0.4739 
      5 CA        -82.1694   25.8462  -73.0121 C.3       1 UNK         0.0864 
      6 C6        -81.0208   25.9109  -71.9648 C.3       11 UNK        -0.0881 
      7 S7        -80.3294   27.5897  -71.8044 S.3       11 UNK        -0.2682 
      8 C8        -78.8650   27.4403  -72.8751 C.3       11 UNK         0.0289 
      9 C9        -77.9868   28.6763  -72.7904 C.ar      11 UNK        -0.0687 
     10 C10       -78.0795   29.6793  -73.7587 C.ar      11 UNK        -0.0823 
     11 C11       -77.2400   30.7963  -73.7032 C.ar      11 UNK        -0.0830 
     12 C12       -76.3250   30.9201  -72.6521 C.ar      11 UNK        -0.1021 
     13 C13       -76.2398   29.9318  -71.6672 C.ar      11 UNK        -0.0753 
     14 C14       -77.0668   28.8082  -71.7473 C.ar      11 UNK        -0.0933 
     15 C15       -75.2723   30.0754  -70.5034 C.3       11 UNK         0.0166 
     16 S16       -73.6703   29.2999  -70.8697 S.3       11 UNK        -0.2615 
     17 C17       -72.6816   30.7471  -71.3893 C.3       11 UNK        -0.0865 
     18 CA        -71.3389   30.3718  -72.0681 C.3       10 UNK         0.0862 
     19 C         -70.3586   29.6668  -71.0808 C.2       10 UNK         0.5551 
     20 N         -70.0625   28.3810  -71.2409 N.am      10 UNK        -0.7319 
     21 O         -69.8526   30.3058  -70.1613 O.2       10 UNK        -0.5018 
     22 N         -71.5663   29.6539  -73.3287 N.am      10 UNK        -0.4509 
     23 C         -70.6397   29.4445  -74.2721 C.2       10 UNK         0.4899 
     24 O         -69.5272   29.9739  -74.2600 O.2       10 UNK        -0.4839 
     25 CA        -71.0115   28.4867  -75.4222 C.3       9 UNK         0.0222 
     26 CB        -69.8039   27.6572  -75.9053 C.3       9 UNK        -0.1966 
     27 N         -72.1522   27.6044  -75.1422 N.am      9 UNK        -0.4218 
     28 C         -72.2753   26.6905  -74.1659 C.2       9 UNK         0.5020 
     29 O         -71.4421   26.5132  -73.2752 O.2       9 UNK        -0.5274 
     30 CA        -73.5501   25.8284  -74.1959 C.3       8 UNK         0.0270 
     31 CB        -74.7389   26.5866  -73.5806 C.3       8 UNK        -0.1976 
     32 N         -73.8992   25.3901  -75.5500 N.am      8 UNK        -0.4313 
     33 C         -73.1617   24.5611  -76.3042 C.2       8 UNK         0.5041 
     34 O         -72.1351   24.0040  -75.9139 O.2       8 UNK        -0.5577 
     35 CA        -73.6396   24.3277  -77.7455 C.3       7 UNK         0.0284 
     36 CB        -74.7631   23.2789  -77.7947 C.3       7 UNK        -0.1958 
     37 N         -74.0942   25.5745  -78.3636 N.am      7 UNK        -0.4454 
     38 C         -73.2803   26.4800  -78.9249 C.2       7 UNK         0.5089 
     39 O         -72.0646   26.3272  -79.0442 O.2       7 UNK        -0.5125 
     40 CA        -73.9246   27.7793  -79.4466 C.3       6 UNK         0.0408 
     41 CB        -74.2382   27.6544  -80.9459 C.3       6 UNK        -0.1791 
     42 N         -75.1442   28.1640  -78.7296 N.am      6 UNK        -0.4762 
     43 C         -75.1799   28.5655  -77.4500 C.2       6 UNK         0.5007 
     44 O         -74.1793   28.6666  -76.7421 O.2       6 UNK        -0.5032 
     45 CA        -76.5750   28.8149  -76.8368 C.3       5 UNK         0.0783 
     46 C46       -77.0781   30.2570  -77.0995 C.3       11 UNK        -0.0857 
     47 S47       -76.1773   31.5318  -76.1509 S.3       11 UNK        -0.2512 
     48 C48       -77.3204   31.8731  -74.7745 C.3       11 UNK         0.0225 
     49 N         -77.5637   27.8194  -77.2763 N.am      5 UNK        -0.4615 
     50 C         -77.4513   26.4969  -77.0970 C.2       4 UNK         0.5053 
     51 O         -76.4959   25.9656  -76.5280 O.2       4 UNK        -0.5105 
     52 CA        -78.5365   25.6254  -77.7503 C.3       4 UNK         0.0263 
     53 CB        -78.2319   25.4438  -79.2472 C.3       4 UNK        -0.1981 
     54 N         -78.6406   24.3021  -77.1307 N.am      4 UNK        -0.4224 
     55 C         -79.1050   24.0770  -75.8966 C.2       3 UNK         0.4895 
     56 O         -79.5285   24.9624  -75.1472 O.2       3 UNK        -0.5091 
     57 CA        -79.0915   22.6176  -75.4186 C.3       3 UNK         0.0250 
     58 CB        -77.6943   22.2271  -74.9071 C.3       3 UNK        -0.1996 
     59 N         -80.0466   22.5054  -74.3231 N.am      3 UNK        -0.4254 
     60 C         -81.1066   21.6915  -74.2635 C.2       2 UNK         0.5004 
     61 O         -81.3172   20.7692  -75.0517 O.2       2 UNK        -0.5226 
     62 CA        -82.1218   21.9837  -73.1403 C.3       2 UNK         0.0269 
     63 CB        -81.8612   21.0779  -71.9261 C.3       2 UNK        -0.1926 
     64 N         -82.0842   23.3891  -72.7144 N.am      2 UNK        -0.4687 
     65 C         -82.5500   24.4132  -73.4471 C.2       1 UNK         0.5165 
     66 O         -83.2270   24.2609  -74.4661 O.2       1 UNK        -0.5079 
     67 H67       -85.3501   27.7565  -70.4570 H         1 UNK         0.0900 
     68 H68       -86.3157   26.7337  -71.5245 H         1 UNK         0.0900 
     69 H69       -85.3956   28.0847  -72.1900 H         1 UNK         0.0900 
     70 H70       -83.5641   27.4008  -73.2415 H         1 UNK         0.2959 
     71 H71       -81.7899   26.3107  -73.9244 H         1 UNK         0.1079 
     72 H72       -81.3659   25.5883  -70.9813 H         1 UNK         0.0837 
     73 H73       -80.2059   25.2376  -72.2362 H         1 UNK         0.0837 
     74 H74       -79.1867   27.2763  -73.9044 H         1 UNK         0.0685 
     75 H75       -78.2826   26.5626  -72.5901 H         1 UNK         0.0685 
     76 H76       -78.7941   29.5810  -74.5643 H         1 UNK         0.1434 
     77 H77       -75.6808   31.7870  -72.6002 H         1 UNK         0.1329 
     78 H78       -76.9981   28.0357  -70.9935 H         1 UNK         0.1335 
     79 H79       -75.1359   31.1266  -70.2445 H         1 UNK         0.0680 
     80 H80       -75.6930   29.6003  -69.6158 H         1 UNK         0.0680 
     81 H81       -73.2762   31.3529  -72.0745 H         1 UNK         0.1032 
     82 H82       -72.5012   31.3786  -70.5171 H         1 UNK         0.1032 
     83 H83       -70.8534   31.3123  -72.3360 H         1 UNK         0.0461 
     84 H84       -70.5006   27.8396  -71.9782 H         1 UNK         0.3453 
     85 H85       -69.4254   27.9360  -70.6003 H         1 UNK         0.3453 
     86 H86       -72.4467   29.1665  -73.4037 H         1 UNK         0.2984 
     87 H87       -71.3268   29.1228  -76.2503 H         1 UNK         0.0554 
     88 H88       -70.0790   27.0065  -76.7359 H         1 UNK         0.0847 
     89 H89       -69.4004   27.0314  -75.1086 H         1 UNK         0.0847 
     90 H90       -68.9963   28.3013  -76.2550 H         1 UNK         0.0847 
     91 H91       -72.9439   27.7407  -75.7694 H         1 UNK         0.3141 
     92 H92       -73.3645   24.9360  -73.5947 H         1 UNK         0.0743 
     93 H93       -74.5310   26.8628  -72.5463 H         1 UNK         0.0784 
     94 H94       -74.9624   27.5057  -74.1234 H         1 UNK         0.0784 
     95 H95       -75.6421   25.9758  -73.5766 H         1 UNK         0.0784 
     96 H96       -74.7790   25.7341  -75.9310 H         1 UNK         0.3213 
     97 H97       -72.7948   23.9370  -78.3175 H         1 UNK         0.0855 
     98 H98       -75.6447   23.5989  -77.2410 H         1 UNK         0.0814 
     99 H99       -74.4317   22.3351  -77.3597 H         1 UNK         0.0814 
    100 H100      -75.0679   23.0730  -78.8208 H         1 UNK         0.0814 
    101 H101      -75.0704   25.8085  -78.2492 H         1 UNK         0.3105 
    102 H102      -73.1940   28.5808  -79.3179 H         1 UNK         0.0547 
    103 H103      -74.9807   26.8797  -81.1417 H         1 UNK         0.0837 
    104 H104      -74.6142   28.5929  -81.3534 H         1 UNK         0.0837 
    105 H105      -73.3417   27.3954  -81.5112 H         1 UNK         0.0837 
    106 H106      -76.0137   28.1016  -79.2393 H         1 UNK         0.3020 
    107 H107      -76.4618   28.6806  -75.7594 H         1 UNK         0.1245 
    108 H108      -78.1381   30.3347  -76.8544 H         1 UNK         0.0781 
    109 H109      -77.0091   30.5038  -78.1608 H         1 UNK         0.0781 
    110 H110      -77.0636   32.8410  -74.3411 H         1 UNK         0.0836 
    111 H111      -78.3412   31.9746  -75.1463 H         1 UNK         0.0836 
    112 H112      -78.3673   28.1756  -77.7736 H         1 UNK         0.3022 
    113 H113      -79.4990   26.1301  -77.6410 H         1 UNK         0.0747 
    114 H114      -78.1863   26.4041  -79.7626 H         1 UNK         0.0793 
    115 H115      -79.0064   24.8555  -79.7399 H         1 UNK         0.0793 
    116 H116      -77.2772   24.9410  -79.4089 H         1 UNK         0.0793 
    117 H117      -78.2887   23.5237  -77.6680 H         1 UNK         0.3047 
    118 H118      -79.3784   21.9678  -76.2483 H         1 UNK         0.0822 
    119 H119      -76.9598   22.2515  -75.7120 H         1 UNK         0.0807 
    120 H120      -77.6913   21.2162  -74.4991 H         1 UNK         0.0807 
    121 H121      -77.3452   22.9042  -74.1260 H         1 UNK         0.0807 
    122 H122      -80.0143   23.2765  -73.6717 H         1 UNK         0.2946 
    123 H123      -83.1181   21.7627  -73.5307 H         1 UNK         0.1144 
    124 H124      -81.9087   20.0253  -72.2087 H         1 UNK         0.0793 
    125 H125      -82.6064   21.2362  -71.1462 H         1 UNK         0.0793 
    126 H126      -80.8762   21.2545  -71.4920 H         1 UNK         0.0793 
    127 H127      -81.5988   23.5897  -71.8520 H         1 UNK         0.2896 
@<TRIPOS>BOND
     1    1    2 1    
     2    1   67 1    
     3    1   68 1    
     4    1   69 1    
     5    2    3 2    
     6    2    4 am   BACKBONE|DICT|INTERRES
     7    4    5 1    
     8    4   70 1    
     9    5    6 1    
    10    5   65 1    
    11    5   71 1    
    12    6    7 1    
    13    6   72 1    
    14    6   73 1    
    15    7    8 1    
    16    8    9 1    
    17    8   74 1    
    18    8   75 1    
    19    9   10 ar   
    20    9   14 ar   
    21   10   11 ar   
    22   10   76 1    
    23   11   12 ar   
    24   11   48 1    
    25   12   13 ar   
    26   12   77 1    
    27   13   14 ar   
    28   13   15 1    
    29   14   78 1    
    30   15   16 1    
    31   15   79 1    
    32   15   80 1    
    33   16   17 1    
    34   17   18 1    
    35   17   81 1    
    36   17   82 1    
    37   18   19 1    
    38   18   22 1    
    39   18   83 1    
    40   19   20 am   BACKBONE|DICT|INTERRES
    41   19   21 2    
    42   20   84 1    
    43   20   85 1    
    44   22   23 am   BACKBONE|DICT|INTERRES
    45   22   86 1    
    46   23   24 2    
    47   23   25 1    
    48   25   26 1    
    49   25   27 1    
    50   25   87 1    
    51   26   88 1    
    52   26   89 1    
    53   26   90 1    
    54   27   28 am   BACKBONE|DICT|INTERRES
    55   27   91 1    
    56   28   29 2    
    57   28   30 1    
    58   30   31 1    
    59   30   32 1    
    60   30   92 1    
    61   31   93 1    
    62   31   94 1    
    63   31   95 1    
    64   32   33 am   BACKBONE|DICT|INTERRES
    65   32   96 1    
    66   33   34 2    
    67   33   35 1    
    68   35   36 1    
    69   35   37 1    
    70   35   97 1    
    71   36   98 1    
    72   36   99 1    
    73   36  100 1    
    74   37   38 am   BACKBONE|DICT|INTERRES
    75   37  101 1    
    76   38   39 2    
    77   38   40 1    
    78   40   41 1    
    79   40   42 1    
    80   40  102 1    
    81   41  103 1    
    82   41  104 1    
    83   41  105 1    
    84   42   43 am   BACKBONE|DICT|INTERRES
    85   42  106 1    
    86   43   44 2    
    87   43   45 1    
    88   45   46 1    
    89   45   49 1    
    90   45  107 1    
    91   46   47 1    
    92   46  108 1    
    93   46  109 1    
    94   47   48 1    
    95   48  110 1    
    96   48  111 1    
    97   49   50 am   BACKBONE|DICT|INTERRES
    98   49  112 1    
    99   50   51 2    
   100   50   52 1    
   101   52   53 1    
   102   52   54 1    
   103   52  113 1    
   104   53  114 1    
   105   53  115 1    
   106   53  116 1    
   107   54   55 am   BACKBONE|DICT|INTERRES
   108   54  117 1    
   109   55   56 2    
   110   55   57 1    
   111   57   58 1    
   112   57   59 1    
   113   57  118 1    
   114   58  119 1    
   115   58  120 1    
   116   58  121 1    
   117   59   60 am   BACKBONE|DICT|INTERRES
   118   59  122 1    
   119   60   61 2    
   120   60   62 1    
   121   62   63 1    
   122   62   64 1    
   123   62  123 1    
   124   63  124 1    
   125   63  125 1    
   126   63  126 1    
   127   64   65 am   BACKBONE|DICT|INTERRES
   128   64  127 1    
   129   65   66 2    
@<TRIPOS>SUBSTRUCTURE
     1 UNK         1 GROUP             0       ****    0 ROOT    
