@<TRIPOS>MOLECULE
3R135
127   129    1
SMALL
USER_CHARGES


@<TRIPOS>ATOM
      1 CA        -81.6424   22.5585  -70.1851 C.3       0 UNK        -0.1998 
      2 C         -82.4656   23.6618  -70.8325 C.2       0 UNK         0.4909 
      3 O         -83.6941   23.5819  -70.8484 O.2       0 UNK        -0.5240 
      4 N         -81.7968   24.6911  -71.3686 N.am      1 UNK        -0.4739 
      5 CA        -82.4235   25.8451  -72.0319 C.3       1 UNK         0.0864 
      6 C6        -81.4454   27.0413  -72.1541 C.3       11 UNK        -0.0881 
      7 S7        -80.7639   27.5926  -70.5505 S.3       11 UNK        -0.2682 
      8 C8        -78.9673   27.3468  -70.7881 C.3       11 UNK         0.0289 
      9 C9        -78.2414   28.5137  -71.4630 C.ar      11 UNK        -0.0687 
     10 C10       -78.8291   29.2643  -72.4893 C.ar      11 UNK        -0.0823 
     11 C11       -78.1411   30.3217  -73.0910 C.ar      11 UNK        -0.0830 
     12 C12       -76.8458   30.6289  -72.6675 C.ar      11 UNK        -0.1021 
     13 C13       -76.2405   29.8869  -71.6501 C.ar      11 UNK        -0.0753 
     14 C14       -76.9408   28.8321  -71.0559 C.ar      11 UNK        -0.0933 
     15 C15       -74.8397   30.2387  -71.1751 C.3       11 UNK         0.0166 
     16 S16       -73.5843   29.1822  -71.9579 S.3       11 UNK        -0.2615 
     17 C17       -72.0629   29.8509  -71.2017 C.3       11 UNK        -0.0865 
     18 CA        -71.1578   30.5835  -72.2269 C.3       10 UNK         0.0862 
     19 C         -70.0250   31.3667  -71.4979 C.2       10 UNK         0.5551 
     20 N         -68.7552   31.0174  -71.6661 N.am      10 UNK        -0.7319 
     21 O         -70.3080   32.3128  -70.7672 O.2       10 UNK        -0.5018 
     22 N         -70.6940   29.6679  -73.2841 N.am      10 UNK        -0.4509 
     23 C         -70.1899   30.0446  -74.4671 C.2       10 UNK         0.4899 
     24 O         -70.0902   31.2180  -74.8269 O.2       10 UNK        -0.4839 
     25 CA        -69.6906   28.9307  -75.4070 C.3       9 UNK         0.0222 
     26 CB        -68.1575   28.8269  -75.3433 C.3       9 UNK        -0.1966 
     27 N         -70.2736   27.6167  -75.1150 N.am      9 UNK        -0.4218 
     28 C         -71.5123   27.2463  -75.4646 C.2       9 UNK         0.5020 
     29 O         -72.2917   27.9636  -76.0949 O.2       9 UNK        -0.5274 
     30 CA        -71.9561   25.8541  -74.9937 C.3       8 UNK         0.0270 
     31 CB        -72.5932   25.9357  -73.5968 C.3       8 UNK        -0.1976 
     32 N         -72.9214   25.2787  -75.9304 N.am      8 UNK        -0.4313 
     33 C         -72.5840   24.5349  -76.9916 C.2       8 UNK         0.5041 
     34 O         -71.4241   24.2190  -77.2638 O.2       8 UNK        -0.5577 
     35 CA        -73.7221   24.0411  -77.9004 C.3       7 UNK         0.0284 
     36 CB        -74.4165   22.8146  -77.2875 C.3       7 UNK        -0.1958 
     37 N         -74.7180   25.0697  -78.2031 N.am      7 UNK        -0.4454 
     38 C         -74.4986   26.1316  -78.9919 C.2       7 UNK         0.5089 
     39 O         -73.4190   26.3771  -79.5309 O.2       7 UNK        -0.5125 
     40 CA        -75.6936   27.0624  -79.2509 C.3       6 UNK         0.0408 
     41 CB        -76.5571   26.5224  -80.4026 C.3       6 UNK        -0.1791 
     42 N         -76.5212   27.2194  -78.0549 N.am      6 UNK        -0.4762 
     43 C         -76.3380   28.1743  -77.1310 C.2       6 UNK         0.5007 
     44 O         -75.4967   29.0672  -77.2355 O.2       6 UNK        -0.5032 
     45 CA        -77.2455   28.1264  -75.8787 C.3       5 UNK         0.0783 
     46 C46       -78.4971   29.0265  -76.0516 C.3       11 UNK        -0.0857 
     47 S47       -78.1167   30.7984  -75.8325 S.3       11 UNK        -0.2512 
     48 C48       -78.8086   31.1449  -74.1843 C.3       11 UNK         0.0225 
     49 N         -77.6276   26.7606  -75.5007 N.am      5 UNK        -0.4615 
     50 C         -76.7726   25.8045  -75.1126 C.2       4 UNK         0.5053 
     51 O         -75.5564   25.9603  -75.0325 O.2       4 UNK        -0.5105 
     52 CA        -77.3666   24.4192  -74.8117 C.3       4 UNK         0.0263 
     53 CB        -77.8766   24.3608  -73.3634 C.3       4 UNK        -0.1981 
     54 N         -78.4461   24.0040  -75.7119 N.am      4 UNK        -0.4224 
     55 C         -78.4488   24.0082  -77.0510 C.2       3 UNK         0.4895 
     56 O         -77.5099   24.4224  -77.7316 O.2       3 UNK        -0.5091 
     57 CA        -79.7193   23.4944  -77.7610 C.3       3 UNK         0.0250 
     58 CB        -79.6038   21.9861  -78.0534 C.3       3 UNK        -0.1996 
     59 N         -80.9952   23.8179  -77.0920 N.am      3 UNK        -0.4254 
     60 C         -81.4375   23.4112  -75.8929 C.2       2 UNK         0.5004 
     61 O         -80.8130   22.6514  -75.1473 O.2       2 UNK        -0.5226 
     62 CA        -82.7645   23.9932  -75.4002 C.3       2 UNK         0.0269 
     63 CB        -83.8945   22.9534  -75.4757 C.3       2 UNK        -0.1926 
     64 N         -82.5433   24.3886  -74.0139 N.am      2 UNK        -0.4687 
     65 C         -82.9928   25.5037  -73.4286 C.2       1 UNK         0.5165 
     66 O         -83.7917   26.2748  -73.9622 O.2       1 UNK        -0.5079 
     67 H67       -80.5728   22.7599  -70.2421 H         1 UNK         0.0900 
     68 H68       -81.9125   22.4568  -69.1343 H         1 UNK         0.0900 
     69 H69       -81.8351   21.6072  -70.6805 H         1 UNK         0.0900 
     70 H70       -80.7903   24.7193  -71.2985 H         1 UNK         0.2959 
     71 H71       -83.2706   26.1633  -71.4197 H         1 UNK         0.1079 
     72 H72       -80.6289   26.7937  -72.8351 H         1 UNK         0.0837 
     73 H73       -81.9571   27.8985  -72.5970 H         1 UNK         0.0837 
     74 H74       -78.5369   27.1775  -69.7998 H         1 UNK         0.0685 
     75 H75       -78.7863   26.4332  -71.3524 H         1 UNK         0.0685 
     76 H76       -79.8299   29.0408  -72.8227 H         1 UNK         0.1434 
     77 H77       -76.3106   31.4468  -73.1308 H         1 UNK         0.1329 
     78 H78       -76.4671   28.2590  -70.2704 H         1 UNK         0.1335 
     79 H79       -74.7821   30.1288  -70.0909 H         1 UNK         0.0680 
     80 H80       -74.6170   31.2846  -71.3929 H         1 UNK         0.0680 
     81 H81       -71.5188   29.0281  -70.7346 H         1 UNK         0.1032 
     82 H82       -72.3394   30.5208  -70.3849 H         1 UNK         0.1032 
     83 H83       -71.7704   31.3456  -72.7130 H         1 UNK         0.0461 
     84 H84       -68.0328   31.5352  -71.1907 H         1 UNK         0.3453 
     85 H85       -68.5133   30.2448  -72.2645 H         1 UNK         0.3453 
     86 H86       -70.7524   28.6834  -73.0756 H         1 UNK         0.2984 
     87 H87       -69.9664   29.2143  -76.4251 H         1 UNK         0.0554 
     88 H88       -67.6911   29.7847  -75.5795 H         1 UNK         0.0847 
     89 H89       -67.7787   28.1006  -76.0628 H         1 UNK         0.0847 
     90 H90       -67.8099   28.5317  -74.3527 H         1 UNK         0.0847 
     91 H91       -69.6948   26.9648  -74.6039 H         1 UNK         0.3141 
     92 H92       -71.0805   25.2042  -74.9300 H         1 UNK         0.0743 
     93 H93       -73.4448   26.6168  -73.5829 H         1 UNK         0.0784 
     94 H94       -72.9427   24.9592  -73.2614 H         1 UNK         0.0784 
     95 H95       -71.8781   26.2968  -72.8570 H         1 UNK         0.0784 
     96 H96       -73.8948   25.5412  -75.7846 H         1 UNK         0.3213 
     97 H97       -73.2738   23.7303  -78.8468 H         1 UNK         0.0855 
     98 H98       -74.8673   23.0469  -76.3238 H         1 UNK         0.0814 
     99 H99       -73.7034   22.0052  -77.1256 H         1 UNK         0.0814 
    100 H100      -75.2002   22.4314  -77.9415 H         1 UNK         0.0814 
    101 H101      -75.6607   24.9142  -77.8575 H         1 UNK         0.3105 
    102 H102      -75.3021   28.0345  -79.5584 H         1 UNK         0.0547 
    103 H103      -77.3825   27.1973  -80.6289 H         1 UNK         0.0837 
    104 H104      -76.9783   25.5430  -80.1728 H         1 UNK         0.0837 
    105 H105      -75.9669   26.4163  -81.3138 H         1 UNK         0.0837 
    106 H106      -77.1915   26.4820  -77.8706 H         1 UNK         0.3020 
    107 H107      -76.6518   28.5153  -75.0470 H         1 UNK         0.1245 
    108 H108      -79.2672   28.7515  -75.3300 H         1 UNK         0.0781 
    109 H109      -78.9556   28.8818  -77.0319 H         1 UNK         0.0781 
    110 H110      -79.8856   30.9706  -74.2028 H         1 UNK         0.0836 
    111 H111      -78.6788   32.2056  -73.9646 H         1 UNK         0.0836 
    112 H112      -78.6078   26.5307  -75.5589 H         1 UNK         0.3022 
    113 H113      -76.5630   23.6897  -74.9146 H         1 UNK         0.0747 
    114 H114      -78.1512   23.3439  -73.0818 H         1 UNK         0.0793 
    115 H115      -77.1112   24.6955  -72.6614 H         1 UNK         0.0793 
    116 H116      -78.7532   24.9932  -73.2244 H         1 UNK         0.0793 
    117 H117      -79.2582   23.5728  -75.2751 H         1 UNK         0.3047 
    118 H118      -79.7551   24.0089  -78.7229 H         1 UNK         0.0822 
    119 H119      -80.4564   21.6278  -78.6302 H         1 UNK         0.0807 
    120 H120      -79.5448   21.3945  -77.1393 H         1 UNK         0.0807 
    121 H121      -78.7061   21.7710  -78.6350 H         1 UNK         0.0807 
    122 H122      -81.5798   24.4634  -77.6061 H         1 UNK         0.2946 
    123 H123      -83.0275   24.8646  -76.0048 H         1 UNK         0.1144 
    124 H124      -83.6619   22.0613  -74.8925 H         1 UNK         0.0793 
    125 H125      -84.0661   22.6371  -76.5054 H         1 UNK         0.0793 
    126 H126      -84.8326   23.3624  -75.1000 H         1 UNK         0.0793 
    127 H127      -81.8721   23.8166  -73.5174 H         1 UNK         0.2896 
@<TRIPOS>BOND
     1    1    2 1    
     2    1   67 1    
     3    1   68 1    
     4    1   69 1    
     5    2    3 2    
     6    2    4 am   BACKBONE|DICT|INTERRES
     7    4    5 1    
     8    4   70 1    
     9    5    6 1    
    10    5   65 1    
    11    5   71 1    
    12    6    7 1    
    13    6   72 1    
    14    6   73 1    
    15    7    8 1    
    16    8    9 1    
    17    8   74 1    
    18    8   75 1    
    19    9   10 ar   
    20    9   14 ar   
    21   10   11 ar   
    22   10   76 1    
    23   11   12 ar   
    24   11   48 1    
    25   12   13 ar   
    26   12   77 1    
    27   13   14 ar   
    28   13   15 1    
    29   14   78 1    
    30   15   16 1    
    31   15   79 1    
    32   15   80 1    
    33   16   17 1    
    34   17   18 1    
    35   17   81 1    
    36   17   82 1    
    37   18   19 1    
    38   18   22 1    
    39   18   83 1    
    40   19   20 am   BACKBONE|DICT|INTERRES
    41   19   21 2    
    42   20   84 1    
    43   20   85 1    
    44   22   23 am   BACKBONE|DICT|INTERRES
    45   22   86 1    
    46   23   24 2    
    47   23   25 1    
    48   25   26 1    
    49   25   27 1    
    50   25   87 1    
    51   26   88 1    
    52   26   89 1    
    53   26   90 1    
    54   27   28 am   BACKBONE|DICT|INTERRES
    55   27   91 1    
    56   28   29 2    
    57   28   30 1    
    58   30   31 1    
    59   30   32 1    
    60   30   92 1    
    61   31   93 1    
    62   31   94 1    
    63   31   95 1    
    64   32   33 am   BACKBONE|DICT|INTERRES
    65   32   96 1    
    66   33   34 2    
    67   33   35 1    
    68   35   36 1    
    69   35   37 1    
    70   35   97 1    
    71   36   98 1    
    72   36   99 1    
    73   36  100 1    
    74   37   38 am   BACKBONE|DICT|INTERRES
    75   37  101 1    
    76   38   39 2    
    77   38   40 1    
    78   40   41 1    
    79   40   42 1    
    80   40  102 1    
    81   41  103 1    
    82   41  104 1    
    83   41  105 1    
    84   42   43 am   BACKBONE|DICT|INTERRES
    85   42  106 1    
    86   43   44 2    
    87   43   45 1    
    88   45   46 1    
    89   45   49 1    
    90   45  107 1    
    91   46   47 1    
    92   46  108 1    
    93   46  109 1    
    94   47   48 1    
    95   48  110 1    
    96   48  111 1    
    97   49   50 am   BACKBONE|DICT|INTERRES
    98   49  112 1    
    99   50   51 2    
   100   50   52 1    
   101   52   53 1    
   102   52   54 1    
   103   52  113 1    
   104   53  114 1    
   105   53  115 1    
   106   53  116 1    
   107   54   55 am   BACKBONE|DICT|INTERRES
   108   54  117 1    
   109   55   56 2    
   110   55   57 1    
   111   57   58 1    
   112   57   59 1    
   113   57  118 1    
   114   58  119 1    
   115   58  120 1    
   116   58  121 1    
   117   59   60 am   BACKBONE|DICT|INTERRES
   118   59  122 1    
   119   60   61 2    
   120   60   62 1    
   121   62   63 1    
   122   62   64 1    
   123   62  123 1    
   124   63  124 1    
   125   63  125 1    
   126   63  126 1    
   127   64   65 am   BACKBONE|DICT|INTERRES
   128   64  127 1    
   129   65   66 2    
@<TRIPOS>SUBSTRUCTURE
     1 UNK         1 GROUP             0       ****    0 ROOT    
