@<TRIPOS>MOLECULE
3R135
127   129    1
SMALL
USER_CHARGES


@<TRIPOS>ATOM
      1 CA        -84.4669   25.1899  -70.6197 C.3       0 UNK        -0.1998 
      2 C         -83.4375   26.1262  -71.2335 C.2       0 UNK         0.4909 
      3 O         -82.2451   25.8210  -71.2128 O.2       0 UNK        -0.5240 
      4 N         -83.8900   27.2539  -71.8006 N.am      1 UNK        -0.4739 
      5 CA        -83.1045   28.3323  -72.4271 C.3       1 UNK         0.0864 
      6 C6        -82.0731   28.9654  -71.4535 C.3       11 UNK        -0.0881 
      7 S7        -81.7211   30.7127  -71.8458 S.3       11 UNK        -0.2682 
      8 C8        -80.1970   31.0121  -70.8890 C.3       11 UNK         0.0289 
      9 C9        -79.0501   30.1003  -71.3073 C.ar      11 UNK        -0.0687 
     10 C10       -78.6210   30.0685  -72.6366 C.ar      11 UNK        -0.0823 
     11 C11       -77.6009   29.2008  -73.0301 C.ar      11 UNK        -0.0830 
     12 C12       -77.0020   28.3647  -72.0831 C.ar      11 UNK        -0.1021 
     13 C13       -77.3816   28.4230  -70.7350 C.ar      11 UNK        -0.0753 
     14 C14       -78.4179   29.2857  -70.3627 C.ar      11 UNK        -0.0933 
     15 C15       -76.7301   27.5572  -69.6528 C.3       11 UNK         0.0166 
     16 S16       -75.0570   26.9288  -70.0355 S.3       11 UNK        -0.2615 
     17 C17       -74.0401   28.4476  -69.9603 C.3       11 UNK        -0.0865 
     18 CA        -73.5531   28.9301  -71.3545 C.3       10 UNK         0.0862 
     19 C         -72.7382   30.2526  -71.2522 C.2       10 UNK         0.5551 
     20 N         -71.5395   30.3430  -71.8159 N.am      10 UNK        -0.7319 
     21 O         -73.2057   31.2199  -70.6563 O.2       10 UNK        -0.5018 
     22 N         -72.8683   27.8565  -72.0974 N.am      10 UNK        -0.4509 
     23 C         -72.9338   27.6874  -73.4217 C.2       10 UNK         0.4899 
     24 O         -73.5864   28.4107  -74.1779 O.2       10 UNK        -0.4839 
     25 CA        -72.1514   26.4871  -73.9849 C.3       9 UNK         0.0222 
     26 CB        -72.8892   25.1740  -73.6857 C.3       9 UNK        -0.1966 
     27 N         -71.9620   26.6133  -75.4313 N.am      9 UNK        -0.4218 
     28 C         -71.0889   27.4574  -76.0010 C.2       9 UNK         0.5020 
     29 O         -70.2572   28.1046  -75.3600 O.2       9 UNK        -0.5274 
     30 CA        -71.1785   27.6433  -77.5287 C.3       8 UNK         0.0270 
     31 CB        -69.8440   28.0915  -78.1643 C.3       8 UNK        -0.1976 
     32 N         -71.7485   26.4908  -78.2352 N.am      8 UNK        -0.4313 
     33 C         -71.2209   25.2628  -78.3684 C.2       8 UNK         0.5041 
     34 O         -70.1277   24.9353  -77.9047 O.2       8 UNK        -0.5577 
     35 CA        -72.0487   24.2129  -79.1372 C.3       7 UNK         0.0284 
     36 CB        -72.1388   22.8910  -78.3527 C.3       7 UNK        -0.1958 
     37 N         -73.4047   24.6860  -79.4289 N.am      7 UNK        -0.4454 
     38 C         -73.7849   25.2835  -80.5677 C.2       7 UNK         0.5089 
     39 O         -73.0451   25.4310  -81.5404 O.2       7 UNK        -0.5125 
     40 CA        -75.2228   25.8373  -80.6321 C.3       6 UNK         0.0408 
     41 CB        -76.1328   24.8703  -81.4058 C.3       6 UNK        -0.1791 
     42 N         -75.8175   26.1091  -79.3189 N.am      6 UNK        -0.4762 
     43 C         -75.3912   27.0382  -78.4490 C.2       6 UNK         0.5007 
     44 O         -74.4551   27.8042  -78.6766 O.2       6 UNK        -0.5032 
     45 CA        -76.0754   27.0571  -77.0662 C.3       5 UNK         0.0783 
     46 C46       -77.2555   28.0600  -77.0475 C.3       11 UNK        -0.0857 
     47 S47       -78.1645   28.0513  -75.4657 S.3       11 UNK        -0.2512 
     48 C48       -77.1407   29.1758  -74.4772 C.3       11 UNK         0.0225 
     49 N         -76.4769   25.7179  -76.6182 N.am      5 UNK        -0.4615 
     50 C         -75.6423   24.6955  -76.3971 C.2       4 UNK         0.5053 
     51 O         -74.4332   24.7512  -76.6320 O.2       4 UNK        -0.5105 
     52 CA        -76.2742   23.3995  -75.8533 C.3       4 UNK         0.0263 
     53 CB        -75.2394   22.4533  -75.2083 C.3       4 UNK        -0.1981 
     54 N         -77.4087   23.6336  -74.9470 N.am      4 UNK        -0.4224 
     55 C         -77.3979   24.2782  -73.7704 C.2       3 UNK         0.4895 
     56 O         -76.4048   24.8243  -73.2901 O.2       3 UNK        -0.5091 
     57 CA        -78.7366   24.3121  -73.0087 C.3       3 UNK         0.0250 
     58 CB        -78.5581   24.6869  -71.5275 C.3       3 UNK        -0.1996 
     59 N         -79.6957   25.2413  -73.6063 N.am      3 UNK        -0.4254 
     60 C         -80.3778   25.0433  -74.7420 C.2       2 UNK         0.5004 
     61 O         -80.2303   24.0478  -75.4544 O.2       2 UNK        -0.5226 
     62 CA        -81.4128   26.1168  -75.1216 C.3       2 UNK         0.0269 
     63 CB        -82.5216   25.5772  -76.0469 C.3       2 UNK        -0.1926 
     64 N         -82.0090   26.6980  -73.9178 N.am      2 UNK        -0.4687 
     65 C         -82.4739   27.9447  -73.7884 C.2       1 UNK         0.5165 
     66 O         -82.4578   28.7674  -74.7051 O.2       1 UNK        -0.5079 
     67 H67       -84.4288   24.2178  -71.1105 H         1 UNK         0.0900 
     68 H68       -85.4806   25.5788  -70.7138 H         1 UNK         0.0900 
     69 H69       -84.2560   25.0454  -69.5605 H         1 UNK         0.0900 
     70 H70       -84.8888   27.4115  -71.8118 H         1 UNK         0.2959 
     71 H71       -83.8488   29.0966  -72.6584 H         1 UNK         0.1079 
     72 H72       -82.4575   28.9438  -70.4325 H         1 UNK         0.0837 
     73 H73       -81.1507   28.3824  -71.4354 H         1 UNK         0.0837 
     74 H74       -79.8916   32.0500  -71.0273 H         1 UNK         0.0685 
     75 H75       -80.4218   30.8949  -69.8277 H         1 UNK         0.0685 
     76 H76       -79.0984   30.7046  -73.3697 H         1 UNK         0.1434 
     77 H77       -76.2296   27.6786  -72.4038 H         1 UNK         0.1329 
     78 H78       -78.7384   29.3179  -69.3302 H         1 UNK         0.1335 
     79 H79       -76.6780   28.1148  -68.7163 H         1 UNK         0.0680 
     80 H80       -77.3787   26.7031  -69.4578 H         1 UNK         0.0680 
     81 H81       -73.1857   28.2487  -69.3111 H         1 UNK         0.1032 
     82 H82       -74.6134   29.2342  -69.4660 H         1 UNK         0.1032 
     83 H83       -74.4432   29.2112  -71.9168 H         1 UNK         0.0461 
     84 H84       -71.1550   29.5625  -72.3241 H         1 UNK         0.3453 
     85 H85       -71.0232   31.2057  -71.7461 H         1 UNK         0.3453 
     86 H86       -72.3186   27.2165  -71.5432 H         1 UNK         0.2984 
     87 H87       -71.1705   26.4508  -73.5062 H         1 UNK         0.0554 
     88 H88       -72.9371   24.9827  -72.6132 H         1 UNK         0.0847 
     89 H89       -72.3962   24.3189  -74.1485 H         1 UNK         0.0847 
     90 H90       -73.9155   25.2078  -74.0482 H         1 UNK         0.0847 
     91 H91       -72.6295   26.1285  -76.0178 H         1 UNK         0.3141 
     92 H92       -71.8914   28.4557  -77.6771 H         1 UNK         0.0743 
     93 H93       -69.5142   29.0449  -77.7499 H         1 UNK         0.0784 
     94 H94       -69.0466   27.3695  -77.9865 H         1 UNK         0.0784 
     95 H95       -69.9425   28.2259  -79.2415 H         1 UNK         0.0784 
     96 H96       -72.6632   26.6586  -78.6394 H         1 UNK         0.3213 
     97 H97       -71.5204   24.0114  -80.0715 H         1 UNK         0.0855 
     98 H98       -71.1507   22.4493  -78.2178 H         1 UNK         0.0814 
     99 H99       -72.7506   22.1569  -78.8769 H         1 UNK         0.0814 
    100 H100      -72.5642   23.0372  -77.3598 H         1 UNK         0.0814 
    101 H101      -74.0568   24.6451  -78.6527 H         1 UNK         0.3105 
    102 H102      -75.1833   26.7809  -81.1804 H         1 UNK         0.0547 
    103 H103      -75.7343   24.6723  -82.4020 H         1 UNK         0.0837 
    104 H104      -76.2282   23.9100  -80.8974 H         1 UNK         0.0837 
    105 H105      -77.1329   25.2836  -81.5370 H         1 UNK         0.0837 
    106 H106      -76.5853   25.5161  -79.0375 H         1 UNK         0.3020 
    107 H107      -75.3228   27.4094  -76.3563 H         1 UNK         0.1245 
    108 H108      -77.9718   27.8223  -77.8365 H         1 UNK         0.0781 
    109 H109      -76.9044   29.0735  -77.2520 H         1 UNK         0.0781 
    110 H110      -77.1814   30.1791  -74.9040 H         1 UNK         0.0836 
    111 H111      -76.0995   28.8600  -74.5294 H         1 UNK         0.0836 
    112 H112      -77.4497   25.6070  -76.3730 H         1 UNK         0.3022 
    113 H113      -76.6849   22.8857  -76.7235 H         1 UNK         0.0747 
    114 H114      -74.4529   22.1888  -75.9158 H         1 UNK         0.0793 
    115 H115      -74.7582   22.9071  -74.3422 H         1 UNK         0.0793 
    116 H116      -75.7041   21.5229  -74.8823 H         1 UNK         0.0793 
    117 H117      -78.3141   23.3115  -75.2764 H         1 UNK         0.3047 
    118 H118      -79.1603   23.3060  -73.0445 H         1 UNK         0.0822 
    119 H119      -77.8456   24.0236  -71.0356 H         1 UNK         0.0807 
    120 H120      -79.5000   24.6179  -70.9825 H         1 UNK         0.0807 
    121 H121      -78.1846   25.7044  -71.4227 H         1 UNK         0.0807 
    122 H122      -79.8479   26.1053  -73.1058 H         1 UNK         0.2946 
    123 H123      -80.8677   26.8948  -75.6597 H         1 UNK         0.1144 
    124 H124      -83.2232   26.3629  -76.3278 H         1 UNK         0.0793 
    125 H125      -83.0874   24.7770  -75.5686 H         1 UNK         0.0793 
    126 H126      -82.1029   25.1769  -76.9711 H         1 UNK         0.0793 
    127 H127      -82.0440   26.1039  -73.0922 H         1 UNK         0.2896 
@<TRIPOS>BOND
     1    1    2 1    
     2    1   67 1    
     3    1   68 1    
     4    1   69 1    
     5    2    3 2    
     6    2    4 am   BACKBONE|DICT|INTERRES
     7    4    5 1    
     8    4   70 1    
     9    5    6 1    
    10    5   65 1    
    11    5   71 1    
    12    6    7 1    
    13    6   72 1    
    14    6   73 1    
    15    7    8 1    
    16    8    9 1    
    17    8   74 1    
    18    8   75 1    
    19    9   10 ar   
    20    9   14 ar   
    21   10   11 ar   
    22   10   76 1    
    23   11   12 ar   
    24   11   48 1    
    25   12   13 ar   
    26   12   77 1    
    27   13   14 ar   
    28   13   15 1    
    29   14   78 1    
    30   15   16 1    
    31   15   79 1    
    32   15   80 1    
    33   16   17 1    
    34   17   18 1    
    35   17   81 1    
    36   17   82 1    
    37   18   19 1    
    38   18   22 1    
    39   18   83 1    
    40   19   20 am   BACKBONE|DICT|INTERRES
    41   19   21 2    
    42   20   84 1    
    43   20   85 1    
    44   22   23 am   BACKBONE|DICT|INTERRES
    45   22   86 1    
    46   23   24 2    
    47   23   25 1    
    48   25   26 1    
    49   25   27 1    
    50   25   87 1    
    51   26   88 1    
    52   26   89 1    
    53   26   90 1    
    54   27   28 am   BACKBONE|DICT|INTERRES
    55   27   91 1    
    56   28   29 2    
    57   28   30 1    
    58   30   31 1    
    59   30   32 1    
    60   30   92 1    
    61   31   93 1    
    62   31   94 1    
    63   31   95 1    
    64   32   33 am   BACKBONE|DICT|INTERRES
    65   32   96 1    
    66   33   34 2    
    67   33   35 1    
    68   35   36 1    
    69   35   37 1    
    70   35   97 1    
    71   36   98 1    
    72   36   99 1    
    73   36  100 1    
    74   37   38 am   BACKBONE|DICT|INTERRES
    75   37  101 1    
    76   38   39 2    
    77   38   40 1    
    78   40   41 1    
    79   40   42 1    
    80   40  102 1    
    81   41  103 1    
    82   41  104 1    
    83   41  105 1    
    84   42   43 am   BACKBONE|DICT|INTERRES
    85   42  106 1    
    86   43   44 2    
    87   43   45 1    
    88   45   46 1    
    89   45   49 1    
    90   45  107 1    
    91   46   47 1    
    92   46  108 1    
    93   46  109 1    
    94   47   48 1    
    95   48  110 1    
    96   48  111 1    
    97   49   50 am   BACKBONE|DICT|INTERRES
    98   49  112 1    
    99   50   51 2    
   100   50   52 1    
   101   52   53 1    
   102   52   54 1    
   103   52  113 1    
   104   53  114 1    
   105   53  115 1    
   106   53  116 1    
   107   54   55 am   BACKBONE|DICT|INTERRES
   108   54  117 1    
   109   55   56 2    
   110   55   57 1    
   111   57   58 1    
   112   57   59 1    
   113   57  118 1    
   114   58  119 1    
   115   58  120 1    
   116   58  121 1    
   117   59   60 am   BACKBONE|DICT|INTERRES
   118   59  122 1    
   119   60   61 2    
   120   60   62 1    
   121   62   63 1    
   122   62   64 1    
   123   62  123 1    
   124   63  124 1    
   125   63  125 1    
   126   63  126 1    
   127   64   65 am   BACKBONE|DICT|INTERRES
   128   64  127 1    
   129   65   66 2    
@<TRIPOS>SUBSTRUCTURE
     1 UNK         1 GROUP             0       ****    0 ROOT    
