@<TRIPOS>MOLECULE
3R135
127   129    1
SMALL
USER_CHARGES


@<TRIPOS>ATOM
      1 CA        -81.8068   27.9794  -67.1851 C.3       0 UNK        -0.1998 
      2 C         -82.1587   27.7510  -68.6473 C.2       0 UNK         0.4909 
      3 O         -83.3355   27.6039  -68.9786 O.2       0 UNK        -0.5240 
      4 N         -81.1471   27.7197  -69.5251 N.am      1 UNK        -0.4739 
      5 CA        -81.2999   27.5249  -70.9754 C.3       1 UNK         0.0864 
      6 C6        -80.0295   27.9489  -71.7575 C.3       11 UNK        -0.0881 
      7 S7        -79.5137   29.6601  -71.3888 S.3       11 UNK        -0.2682 
      8 C8        -80.1746   30.5743  -72.8214 C.3       11 UNK         0.0289 
      9 C9        -79.4237   30.2892  -74.1181 C.ar      11 UNK        -0.0687 
     10 C10       -80.1285   29.9483  -75.2776 C.ar      11 UNK        -0.0823 
     11 C11       -79.4531   29.7292  -76.4833 C.ar      11 UNK        -0.0830 
     12 C12       -78.0617   29.8486  -76.5219 C.ar      11 UNK        -0.1021 
     13 C13       -77.3423   30.1435  -75.3618 C.ar      11 UNK        -0.0753 
     14 C14       -78.0295   30.3898  -74.1702 C.ar      11 UNK        -0.0933 
     15 C15       -75.8222   30.1654  -75.3950 C.3       11 UNK         0.0166 
     16 S16       -75.1415   28.4803  -75.5271 S.3       11 UNK        -0.2615 
     17 C17       -75.5494   27.7696  -73.8939 C.3       11 UNK        -0.0865 
     18 CA        -74.3038   27.6337  -72.9813 C.3       10 UNK         0.0862 
     19 C         -74.7150   27.2316  -71.5335 C.2       10 UNK         0.5551 
     20 N         -74.2818   26.0924  -71.0069 N.am      10 UNK        -0.7319 
     21 O         -75.4377   27.9737  -70.8742 O.2       10 UNK        -0.5018 
     22 N         -73.2810   26.7727  -73.5992 N.am      10 UNK        -0.4509 
     23 C         -71.9838   26.7565  -73.2677 C.2       10 UNK         0.4899 
     24 O         -71.4848   27.4767  -72.4031 O.2       10 UNK        -0.4839 
     25 CA        -71.0896   25.7751  -74.0404 C.3       9 UNK         0.0222 
     26 CB        -71.7992   24.4499  -74.3871 C.3       9 UNK        -0.1966 
     27 N         -70.6157   26.4161  -75.2657 N.am      9 UNK        -0.4218 
     28 C         -69.4720   27.1056  -75.3827 C.2       9 UNK         0.5020 
     29 O         -68.6398   27.2212  -74.4818 O.2       9 UNK        -0.5274 
     30 CA        -69.1965   27.7717  -76.7434 C.3       8 UNK         0.0270 
     31 CB        -68.3458   26.8485  -77.6311 C.3       8 UNK        -0.1976 
     32 N         -70.4165   28.1398  -77.4658 N.am      8 UNK        -0.4313 
     33 C         -71.2424   29.1383  -77.1316 C.2       8 UNK         0.5041 
     34 O         -71.0422   29.8999  -76.1853 O.2       8 UNK        -0.5577 
     35 CA        -72.5156   29.3112  -77.9793 C.3       7 UNK         0.0284 
     36 CB        -72.2300   30.1141  -79.2635 C.3       7 UNK        -0.1958 
     37 N         -73.2279   28.0549  -78.2653 N.am      7 UNK        -0.4454 
     38 C         -72.8555   27.0245  -79.0389 C.2       7 UNK         0.5089 
     39 O         -71.7846   26.9811  -79.6455 O.2       7 UNK        -0.5125 
     40 CA        -73.8002   25.8109  -79.1125 C.3       6 UNK         0.0408 
     41 CB        -73.1488   24.5828  -78.4560 C.3       6 UNK        -0.1791 
     42 N         -75.1067   26.0363  -78.4880 N.am      6 UNK        -0.4762 
     43 C         -76.1437   26.6660  -79.0538 C.2       6 UNK         0.5007 
     44 O         -76.0866   27.1745  -80.1747 O.2       6 UNK        -0.5032 
     45 CA        -77.4628   26.7109  -78.2416 C.3       5 UNK         0.0783 
     46 C46       -78.6043   27.4115  -79.0286 C.3       11 UNK        -0.0857 
     47 S47       -80.1588   27.5744  -78.0807 S.3       11 UNK        -0.2512 
     48 C48       -80.2274   29.3644  -77.7415 C.3       11 UNK         0.0225 
     49 N         -77.8695   25.3801  -77.7709 N.am      5 UNK        -0.4615 
     50 C         -77.3226   24.7057  -76.7533 C.2       4 UNK         0.5053 
     51 O         -76.3258   25.0851  -76.1328 O.2       4 UNK        -0.5105 
     52 CA        -77.9651   23.3533  -76.4073 C.3       4 UNK         0.0263 
     53 CB        -77.2678   22.2209  -77.1788 C.3       4 UNK        -0.1981 
     54 N         -77.8867   23.0770  -74.9717 N.am      4 UNK        -0.4224 
     55 C         -78.5455   23.7679  -74.0326 C.2       3 UNK         0.4895 
     56 O         -79.3525   24.6681  -74.2773 O.2       3 UNK        -0.5091 
     57 CA        -78.2069   23.4155  -72.5745 C.3       3 UNK         0.0250 
     58 CB        -76.9550   24.1857  -72.1221 C.3       3 UNK        -0.1996 
     59 N         -79.3100   23.7399  -71.6703 N.am      3 UNK        -0.4254 
     60 C         -80.4758   23.0814  -71.6033 C.2       2 UNK         0.5004 
     61 O         -80.7143   22.0430  -72.2216 O.2       2 UNK        -0.5226 
     62 CA        -81.5582   23.6791  -70.6851 C.3       2 UNK         0.0269 
     63 CB        -81.5784   22.9531  -69.3299 C.3       2 UNK        -0.1926 
     64 N         -81.3749   25.1163  -70.4567 N.am      2 UNK        -0.4687 
     65 C         -81.6857   26.0753  -71.3429 C.2       1 UNK         0.5165 
     66 O         -82.2449   25.8525  -72.4171 O.2       1 UNK        -0.5079 
     67 H67       -82.3010   28.8779  -66.8167 H         1 UNK         0.0900 
     68 H68       -80.7335   28.0986  -67.0377 H         1 UNK         0.0900 
     69 H69       -82.1405   27.1351  -66.5825 H         1 UNK         0.0900 
     70 H70       -80.2026   27.8819  -69.2046 H         1 UNK         0.2959 
     71 H71       -82.1243   28.1593  -71.3092 H         1 UNK         0.1079 
     72 H72       -79.1917   27.2926  -71.5138 H         1 UNK         0.0837 
     73 H73       -80.1856   27.8435  -72.8334 H         1 UNK         0.0837 
     74 H74       -80.1077   31.6426  -72.6122 H         1 UNK         0.0685 
     75 H75       -81.2369   30.3471  -72.9243 H         1 UNK         0.0685 
     76 H76       -81.2061   29.8621  -75.2449 H         1 UNK         0.1434 
     77 H77       -77.5309   29.6826  -77.4483 H         1 UNK         0.1329 
     78 H78       -77.4783   30.6399  -73.2739 H         1 UNK         0.1335 
     79 H79       -75.4150   30.6529  -74.5076 H         1 UNK         0.0680 
     80 H80       -75.4869   30.7524  -76.2511 H         1 UNK         0.0680 
     81 H81       -76.3120   28.3817  -73.4118 H         1 UNK         0.1032 
     82 H82       -76.0142   26.7948  -74.0517 H         1 UNK         0.1032 
     83 H83       -73.8660   28.6297  -72.8886 H         1 UNK         0.0461 
     84 H84       -74.5492   25.8515  -70.0660 H         1 UNK         0.3453 
     85 H85       -73.6778   25.4836  -71.5331 H         1 UNK         0.3453 
     86 H86       -73.6128   26.1508  -74.3205 H         1 UNK         0.2984 
     87 H87       -70.2405   25.5300  -73.3986 H         1 UNK         0.0554 
     88 H88       -71.1075   23.7494  -74.8553 H         1 UNK         0.0847 
     89 H89       -72.6391   24.5841  -75.0680 H         1 UNK         0.0847 
     90 H90       -72.1812   23.9657  -73.4873 H         1 UNK         0.0847 
     91 H91       -71.2423   26.4139  -76.0557 H         1 UNK         0.3141 
     92 H92       -68.6268   28.6840  -76.5536 H         1 UNK         0.0743 
     93 H93       -68.8723   25.9250  -77.8760 H         1 UNK         0.0784 
     94 H94       -68.0743   27.3381  -78.5667 H         1 UNK         0.0784 
     95 H95       -67.4169   26.5722  -77.1301 H         1 UNK         0.0784 
     96 H96       -70.6642   27.5929  -78.2883 H         1 UNK         0.3213 
     97 H97       -73.2045   29.9069  -77.3785 H         1 UNK         0.0855 
     98 H98       -71.5216   29.6065  -79.9185 H         1 UNK         0.0814 
     99 H99       -71.8039   31.0891  -79.0232 H         1 UNK         0.0814 
    100 H100      -73.1438   30.2911  -79.8307 H         1 UNK         0.0814 
    101 H101      -74.1018   27.9464  -77.7673 H         1 UNK         0.3105 
    102 H102      -73.9529   25.5862  -80.1702 H         1 UNK         0.0547 
    103 H103      -72.1885   24.3511  -78.9189 H         1 UNK         0.0837 
    104 H104      -72.9694   24.7420  -77.3936 H         1 UNK         0.0837 
    105 H105      -73.7770   23.6980  -78.5602 H         1 UNK         0.0837 
    106 H106      -75.2578   25.6423  -77.5610 H         1 UNK         0.3020 
    107 H107      -77.2528   27.3128  -77.3560 H         1 UNK         0.1245 
    108 H108      -78.8319   26.8511  -79.9374 H         1 UNK         0.0781 
    109 H109      -78.2876   28.3999  -79.3653 H         1 UNK         0.0781 
    110 H110      -81.2740   29.6520  -77.6306 H         1 UNK         0.0836 
    111 H111      -79.8543   29.9317  -78.5953 H         1 UNK         0.0836 
    112 H112      -78.6687   24.9816  -78.2417 H         1 UNK         0.3022 
    113 H113      -79.0194   23.3783  -76.6916 H         1 UNK         0.0747 
    114 H114      -76.2088   22.1523  -76.9255 H         1 UNK         0.0793 
    115 H115      -77.3341   22.3823  -78.2557 H         1 UNK         0.0793 
    116 H116      -77.7275   21.2549  -76.9690 H         1 UNK         0.0793 
    117 H117      -77.2094   22.3862  -74.6836 H         1 UNK         0.3047 
    118 H118      -78.0099   22.3432  -72.5072 H         1 UNK         0.0822 
    119 H119      -76.1013   23.9656  -72.7647 H         1 UNK         0.0807 
    120 H120      -76.6690   23.9196  -71.1044 H         1 UNK         0.0807 
    121 H121      -77.1140   25.2644  -72.1546 H         1 UNK         0.0807 
    122 H122      -79.2227   24.5935  -71.1411 H         1 UNK         0.2946 
    123 H123      -82.5227   23.5221  -71.1741 H         1 UNK         0.1144 
    124 H124      -81.7418   21.8828  -69.4638 H         1 UNK         0.0793 
    125 H125      -82.3817   23.3244  -68.6931 H         1 UNK         0.0793 
    126 H126      -80.6379   23.0741  -68.7910 H         1 UNK         0.0793 
    127 H127      -80.9490   25.3944  -69.5842 H         1 UNK         0.2896 
@<TRIPOS>BOND
     1    1    2 1    
     2    1   67 1    
     3    1   68 1    
     4    1   69 1    
     5    2    3 2    
     6    2    4 am   BACKBONE|DICT|INTERRES
     7    4    5 1    
     8    4   70 1    
     9    5    6 1    
    10    5   65 1    
    11    5   71 1    
    12    6    7 1    
    13    6   72 1    
    14    6   73 1    
    15    7    8 1    
    16    8    9 1    
    17    8   74 1    
    18    8   75 1    
    19    9   10 ar   
    20    9   14 ar   
    21   10   11 ar   
    22   10   76 1    
    23   11   12 ar   
    24   11   48 1    
    25   12   13 ar   
    26   12   77 1    
    27   13   14 ar   
    28   13   15 1    
    29   14   78 1    
    30   15   16 1    
    31   15   79 1    
    32   15   80 1    
    33   16   17 1    
    34   17   18 1    
    35   17   81 1    
    36   17   82 1    
    37   18   19 1    
    38   18   22 1    
    39   18   83 1    
    40   19   20 am   BACKBONE|DICT|INTERRES
    41   19   21 2    
    42   20   84 1    
    43   20   85 1    
    44   22   23 am   BACKBONE|DICT|INTERRES
    45   22   86 1    
    46   23   24 2    
    47   23   25 1    
    48   25   26 1    
    49   25   27 1    
    50   25   87 1    
    51   26   88 1    
    52   26   89 1    
    53   26   90 1    
    54   27   28 am   BACKBONE|DICT|INTERRES
    55   27   91 1    
    56   28   29 2    
    57   28   30 1    
    58   30   31 1    
    59   30   32 1    
    60   30   92 1    
    61   31   93 1    
    62   31   94 1    
    63   31   95 1    
    64   32   33 am   BACKBONE|DICT|INTERRES
    65   32   96 1    
    66   33   34 2    
    67   33   35 1    
    68   35   36 1    
    69   35   37 1    
    70   35   97 1    
    71   36   98 1    
    72   36   99 1    
    73   36  100 1    
    74   37   38 am   BACKBONE|DICT|INTERRES
    75   37  101 1    
    76   38   39 2    
    77   38   40 1    
    78   40   41 1    
    79   40   42 1    
    80   40  102 1    
    81   41  103 1    
    82   41  104 1    
    83   41  105 1    
    84   42   43 am   BACKBONE|DICT|INTERRES
    85   42  106 1    
    86   43   44 2    
    87   43   45 1    
    88   45   46 1    
    89   45   49 1    
    90   45  107 1    
    91   46   47 1    
    92   46  108 1    
    93   46  109 1    
    94   47   48 1    
    95   48  110 1    
    96   48  111 1    
    97   49   50 am   BACKBONE|DICT|INTERRES
    98   49  112 1    
    99   50   51 2    
   100   50   52 1    
   101   52   53 1    
   102   52   54 1    
   103   52  113 1    
   104   53  114 1    
   105   53  115 1    
   106   53  116 1    
   107   54   55 am   BACKBONE|DICT|INTERRES
   108   54  117 1    
   109   55   56 2    
   110   55   57 1    
   111   57   58 1    
   112   57   59 1    
   113   57  118 1    
   114   58  119 1    
   115   58  120 1    
   116   58  121 1    
   117   59   60 am   BACKBONE|DICT|INTERRES
   118   59  122 1    
   119   60   61 2    
   120   60   62 1    
   121   62   63 1    
   122   62   64 1    
   123   62  123 1    
   124   63  124 1    
   125   63  125 1    
   126   63  126 1    
   127   64   65 am   BACKBONE|DICT|INTERRES
   128   64  127 1    
   129   65   66 2    
@<TRIPOS>SUBSTRUCTURE
     1 UNK         1 GROUP             0       ****    0 ROOT    
