@<TRIPOS>MOLECULE
3R135
127   129    1
SMALL
USER_CHARGES


@<TRIPOS>ATOM
      1 CA        -80.9943   28.8194  -78.2804 C.3       0 UNK        -0.1998 
      2 C         -80.5993   28.1409  -76.9777 C.2       0 UNK         0.4909 
      3 O         -79.9710   27.0852  -77.0109 O.2       0 UNK        -0.5240 
      4 N         -80.9473   28.7527  -75.8364 N.am      1 UNK        -0.4739 
      5 CA        -80.7012   28.2554  -74.4759 C.3       1 UNK         0.0864 
      6 C6        -81.2110   29.2916  -73.4394 C.3       11 UNK        -0.0881 
      7 S7        -80.9607   28.8335  -71.6891 S.3       11 UNK        -0.2682 
      8 C8        -79.5706   29.9072  -71.1972 C.3       11 UNK         0.0289 
      9 C9        -78.2293   29.4407  -71.7508 C.ar      11 UNK        -0.0687 
     10 C10       -77.8264   28.1095  -71.5989 C.ar      11 UNK        -0.0823 
     11 C11       -76.5887   27.6833  -72.0842 C.ar      11 UNK        -0.0830 
     12 C12       -75.7348   28.6009  -72.6971 C.ar      11 UNK        -0.1021 
     13 C13       -76.1174   29.9363  -72.8462 C.ar      11 UNK        -0.0753 
     14 C14       -77.3706   30.3491  -72.3807 C.ar      11 UNK        -0.0933 
     15 C15       -75.1812   30.9199  -73.5346 C.3       11 UNK         0.0166 
     16 S16       -74.4753   32.1334  -72.3817 S.3       11 UNK        -0.2615 
     17 C17       -73.4652   31.0817  -71.2852 C.3       11 UNK        -0.0865 
     18 CA        -71.9465   31.2413  -71.5459 C.3       10 UNK         0.0862 
     19 C         -71.1336   30.7596  -70.3112 C.2       10 UNK         0.5551 
     20 N         -70.8380   31.6533  -69.3775 N.am      10 UNK        -0.7319 
     21 O         -70.8085   29.5816  -70.1734 O.2       10 UNK        -0.5018 
     22 N         -71.5168   30.5534  -72.7760 N.am      10 UNK        -0.4509 
     23 C         -70.3213   30.7412  -73.3457 C.2       10 UNK         0.4899 
     24 O         -69.5700   31.6714  -73.0492 O.2       10 UNK        -0.4839 
     25 CA        -69.8358   29.7166  -74.3884 C.3       9 UNK         0.0222 
     26 CB        -69.1908   28.5060  -73.6847 C.3       9 UNK        -0.1966 
     27 N         -70.8029   29.2757  -75.4041 N.am      9 UNK        -0.4218 
     28 C         -71.9298   28.5665  -75.2563 C.2       9 UNK         0.5020 
     29 O         -72.4367   28.2763  -74.1698 O.2       9 UNK        -0.5274 
     30 CA        -72.5404   28.0241  -76.5604 C.3       8 UNK         0.0270 
     31 CB        -71.9486   26.6426  -76.8819 C.3       8 UNK        -0.1976 
     32 N         -73.9973   27.9160  -76.4863 N.am      8 UNK        -0.4313 
     33 C         -74.8254   28.9657  -76.5644 C.2       8 UNK         0.5041 
     34 O         -74.4302   30.1162  -76.7652 O.2       8 UNK        -0.5577 
     35 CA        -76.3344   28.7028  -76.3755 C.3       7 UNK         0.0284 
     36 CB        -77.2115   29.7940  -77.0261 C.3       7 UNK        -0.1958 
     37 N         -76.7675   27.3564  -76.7678 N.am      7 UNK        -0.4454 
     38 C         -76.7139   26.7999  -77.9870 C.2       7 UNK         0.5089 
     39 O         -76.3040   27.3815  -78.9933 O.2       7 UNK        -0.5125 
     40 CA        -77.1804   25.3300  -78.0796 C.3       6 UNK         0.0408 
     41 CB        -76.6774   24.6209  -79.3544 C.3       6 UNK        -0.1791 
     42 N         -76.8528   24.5367  -76.8862 N.am      6 UNK        -0.4762 
     43 C         -75.6295   24.3148  -76.3770 C.2       6 UNK         0.5007 
     44 O         -74.6000   24.7887  -76.8563 O.2       6 UNK        -0.5032 
     45 CA        -75.5175   23.4363  -75.1170 C.3       5 UNK         0.0783 
     46 C46       -75.3513   24.2858  -73.8315 C.3       11 UNK        -0.0857 
     47 S47       -76.8000   25.3135  -73.4182 S.3       11 UNK        -0.2512 
     48 C48       -76.1828   26.2263  -71.9757 C.3       11 UNK         0.0225 
     49 N         -76.6226   22.4752  -75.0121 N.am      5 UNK        -0.4615 
     50 C         -76.4737   21.1453  -75.0993 C.2       4 UNK         0.5053 
     51 O         -75.3915   20.5907  -75.2948 O.2       4 UNK        -0.5105 
     52 CA        -77.7243   20.2636  -74.9218 C.3       4 UNK         0.0263 
     53 CB        -77.8305   19.7797  -73.4663 C.3       4 UNK        -0.1981 
     54 N         -78.9726   20.9272  -75.2944 N.am      4 UNK        -0.4224 
     55 C         -79.3353   21.2424  -76.5456 C.2       3 UNK         0.4895 
     56 O         -78.6848   20.9376  -77.5455 O.2       3 UNK        -0.5091 
     57 CA        -80.6387   22.0495  -76.7112 C.3       3 UNK         0.0250 
     58 CB        -81.7930   21.1241  -77.1296 C.3       3 UNK        -0.1996 
     59 N         -81.0414   22.8172  -75.5231 N.am      3 UNK        -0.4254 
     60 C         -80.3076   23.7861  -74.9596 C.2       2 UNK         0.5004 
     61 O         -79.1739   24.0853  -75.3409 O.2       2 UNK        -0.5226 
     62 CA        -80.9005   24.4862  -73.7300 C.3       2 UNK         0.0269 
     63 CB        -80.3400   23.8671  -72.4390 C.3       2 UNK        -0.1926 
     64 N         -80.5425   25.9020  -73.7773 N.am      2 UNK        -0.4687 
     65 C         -81.3334   26.8571  -74.2816 C.2       1 UNK         0.5165 
     66 O         -82.5119   26.6748  -74.6017 O.2       1 UNK        -0.5079 
     67 H67       -80.1062   29.0264  -78.8772 H         1 UNK         0.0900 
     68 H68       -81.5158   29.7610  -78.1099 H         1 UNK         0.0900 
     69 H69       -81.6489   28.1675  -78.8581 H         1 UNK         0.0900 
     70 H70       -81.4797   29.6089  -75.8909 H         1 UNK         0.2959 
     71 H71       -79.6187   28.1623  -74.3614 H         1 UNK         0.1079 
     72 H72       -82.2801   29.4622  -73.5800 H         1 UNK         0.0837 
     73 H73       -80.7334   30.2558  -73.6212 H         1 UNK         0.0837 
     74 H74       -79.5073   29.9124  -70.1084 H         1 UNK         0.0685 
     75 H75       -79.7852   30.9346  -71.4954 H         1 UNK         0.0685 
     76 H76       -78.4836   27.4002  -71.1143 H         1 UNK         0.1434 
     77 H77       -74.7769   28.2689  -73.0733 H         1 UNK         0.1329 
     78 H78       -77.6663   31.3829  -72.4966 H         1 UNK         0.1335 
     79 H79       -74.3603   30.3975  -74.0265 H         1 UNK         0.0680 
     80 H80       -75.7249   31.4476  -74.3194 H         1 UNK         0.0680 
     81 H81       -73.7593   30.0345  -71.3597 H         1 UNK         0.1032 
     82 H82       -73.7153   31.3824  -70.2656 H         1 UNK         0.1032 
     83 H83       -71.7388   32.3059  -71.6758 H         1 UNK         0.0461 
     84 H84       -71.1081   32.6197  -69.4768 H         1 UNK         0.3453 
     85 H85       -70.3250   31.3584  -68.5612 H         1 UNK         0.3453 
     86 H86       -72.0474   29.7359  -73.0652 H         1 UNK         0.2984 
     87 H87       -69.0452   30.2134  -74.9533 H         1 UNK         0.0554 
     88 H88       -68.7353   27.8239  -74.4025 H         1 UNK         0.0847 
     89 H89       -69.9177   27.9414  -73.0993 H         1 UNK         0.0847 
     90 H90       -68.4051   28.8261  -72.9989 H         1 UNK         0.0847 
     91 H91       -70.5207   29.4813  -76.3530 H         1 UNK         0.3141 
     92 H92       -72.2888   28.7025  -77.3788 H         1 UNK         0.0743 
     93 H93       -72.1628   25.9200  -76.0930 H         1 UNK         0.0784 
     94 H94       -72.3491   26.2466  -77.8155 H         1 UNK         0.0784 
     95 H95       -70.8644   26.6938  -76.9906 H         1 UNK         0.0784 
     96 H96       -74.3794   26.9892  -76.3458 H         1 UNK         0.3213 
     97 H97       -76.5115   28.7560  -75.3037 H         1 UNK         0.0855 
     98 H98       -77.1202   29.7974  -78.1123 H         1 UNK         0.0814 
     99 H99       -76.9321   30.7875  -76.6734 H         1 UNK         0.0814 
    100 H100      -78.2601   29.6602  -76.7731 H         1 UNK         0.0814 
    101 H101      -77.1319   26.7759  -76.0238 H         1 UNK         0.3105 
    102 H102      -78.2692   25.3575  -78.1305 H         1 UNK         0.0547 
    103 H103      -77.0353   25.1282  -80.2509 H         1 UNK         0.0837 
    104 H104      -75.5882   24.6029  -79.4042 H         1 UNK         0.0837 
    105 H105      -77.0336   23.5919  -79.4016 H         1 UNK         0.0837 
    106 H106      -77.6610   24.2041  -76.3621 H         1 UNK         0.3020 
    107 H107      -74.5784   22.8932  -75.2450 H         1 UNK         0.1245 
    108 H108      -75.1478   23.6285  -72.9848 H         1 UNK         0.0781 
    109 H109      -74.4771   24.9342  -73.9228 H         1 UNK         0.0781 
    110 H110      -76.5856   25.7806  -71.0650 H         1 UNK         0.0836 
    111 H111      -75.0969   26.1467  -71.9034 H         1 UNK         0.0836 
    112 H112      -77.5461   22.8710  -74.8770 H         1 UNK         0.3022 
    113 H113      -77.6024   19.3891  -75.5647 H         1 UNK         0.0747 
    114 H114      -78.6641   19.0893  -73.3364 H         1 UNK         0.0793 
    115 H115      -76.9252   19.2513  -73.1638 H         1 UNK         0.0793 
    116 H116      -77.9693   20.6106  -72.7730 H         1 UNK         0.0793 
    117 H117      -79.5804   21.2103  -74.5404 H         1 UNK         0.3047 
    118 H118      -80.4658   22.7665  -77.5169 H         1 UNK         0.0822 
    119 H119      -82.6963   21.6914  -77.3547 H         1 UNK         0.0807 
    120 H120      -82.0341   20.4010  -76.3494 H         1 UNK         0.0807 
    121 H121      -81.5361   20.5604  -78.0278 H         1 UNK         0.0807 
    122 H122      -81.9536   22.6091  -75.1418 H         1 UNK         0.2946 
    123 H123      -81.9865   24.3673  -73.7321 H         1 UNK         0.1144 
    124 H124      -80.7264   24.3776  -71.5567 H         1 UNK         0.0793 
    125 H125      -79.2513   23.9163  -72.4019 H         1 UNK         0.0793 
    126 H126      -80.6215   22.8168  -72.3542 H         1 UNK         0.0793 
    127 H127      -79.5690   26.1097  -73.6025 H         1 UNK         0.2896 
@<TRIPOS>BOND
     1    1    2 1    
     2    1   67 1    
     3    1   68 1    
     4    1   69 1    
     5    2    3 2    
     6    2    4 am   BACKBONE|DICT|INTERRES
     7    4    5 1    
     8    4   70 1    
     9    5    6 1    
    10    5   65 1    
    11    5   71 1    
    12    6    7 1    
    13    6   72 1    
    14    6   73 1    
    15    7    8 1    
    16    8    9 1    
    17    8   74 1    
    18    8   75 1    
    19    9   10 ar   
    20    9   14 ar   
    21   10   11 ar   
    22   10   76 1    
    23   11   12 ar   
    24   11   48 1    
    25   12   13 ar   
    26   12   77 1    
    27   13   14 ar   
    28   13   15 1    
    29   14   78 1    
    30   15   16 1    
    31   15   79 1    
    32   15   80 1    
    33   16   17 1    
    34   17   18 1    
    35   17   81 1    
    36   17   82 1    
    37   18   19 1    
    38   18   22 1    
    39   18   83 1    
    40   19   20 am   BACKBONE|DICT|INTERRES
    41   19   21 2    
    42   20   84 1    
    43   20   85 1    
    44   22   23 am   BACKBONE|DICT|INTERRES
    45   22   86 1    
    46   23   24 2    
    47   23   25 1    
    48   25   26 1    
    49   25   27 1    
    50   25   87 1    
    51   26   88 1    
    52   26   89 1    
    53   26   90 1    
    54   27   28 am   BACKBONE|DICT|INTERRES
    55   27   91 1    
    56   28   29 2    
    57   28   30 1    
    58   30   31 1    
    59   30   32 1    
    60   30   92 1    
    61   31   93 1    
    62   31   94 1    
    63   31   95 1    
    64   32   33 am   BACKBONE|DICT|INTERRES
    65   32   96 1    
    66   33   34 2    
    67   33   35 1    
    68   35   36 1    
    69   35   37 1    
    70   35   97 1    
    71   36   98 1    
    72   36   99 1    
    73   36  100 1    
    74   37   38 am   BACKBONE|DICT|INTERRES
    75   37  101 1    
    76   38   39 2    
    77   38   40 1    
    78   40   41 1    
    79   40   42 1    
    80   40  102 1    
    81   41  103 1    
    82   41  104 1    
    83   41  105 1    
    84   42   43 am   BACKBONE|DICT|INTERRES
    85   42  106 1    
    86   43   44 2    
    87   43   45 1    
    88   45   46 1    
    89   45   49 1    
    90   45  107 1    
    91   46   47 1    
    92   46  108 1    
    93   46  109 1    
    94   47   48 1    
    95   48  110 1    
    96   48  111 1    
    97   49   50 am   BACKBONE|DICT|INTERRES
    98   49  112 1    
    99   50   51 2    
   100   50   52 1    
   101   52   53 1    
   102   52   54 1    
   103   52  113 1    
   104   53  114 1    
   105   53  115 1    
   106   53  116 1    
   107   54   55 am   BACKBONE|DICT|INTERRES
   108   54  117 1    
   109   55   56 2    
   110   55   57 1    
   111   57   58 1    
   112   57   59 1    
   113   57  118 1    
   114   58  119 1    
   115   58  120 1    
   116   58  121 1    
   117   59   60 am   BACKBONE|DICT|INTERRES
   118   59  122 1    
   119   60   61 2    
   120   60   62 1    
   121   62   63 1    
   122   62   64 1    
   123   62  123 1    
   124   63  124 1    
   125   63  125 1    
   126   63  126 1    
   127   64   65 am   BACKBONE|DICT|INTERRES
   128   64  127 1    
   129   65   66 2    
@<TRIPOS>SUBSTRUCTURE
     1 UNK         1 GROUP             0       ****    0 ROOT    
