@<TRIPOS>MOLECULE
3R135
127   129    1
SMALL
USER_CHARGES


@<TRIPOS>ATOM
      1 CA        -80.5040   21.2208  -70.8146 C.3       0 UNK        -0.1998 
      2 C         -81.2315   22.5551  -70.8795 C.2       0 UNK         0.4909 
      3 O         -82.3108   22.6943  -70.3039 O.2       0 UNK        -0.5240 
      4 N         -80.6513   23.5369  -71.5823 N.am      1 UNK        -0.4739 
      5 CA        -81.1892   24.8984  -71.7270 C.3       1 UNK         0.0864 
      6 C6        -80.0898   25.9151  -72.1281 C.3       11 UNK        -0.0881 
      7 S7        -78.7097   25.9822  -70.9329 S.3       11 UNK        -0.2682 
      8 C8        -78.6890   27.7453  -70.4691 C.3       11 UNK         0.0289 
      9 C9        -77.9885   28.5940  -71.5216 C.ar      11 UNK        -0.0687 
     10 C10       -78.7046   29.1165  -72.6019 C.ar      11 UNK        -0.0823 
     11 C11       -78.0595   29.8645  -73.5896 C.ar      11 UNK        -0.0830 
     12 C12       -76.6896   30.1189  -73.4769 C.ar      11 UNK        -0.1021 
     13 C13       -75.9664   29.6253  -72.3863 C.ar      11 UNK        -0.0753 
     14 C14       -76.6195   28.8582  -71.4160 C.ar      11 UNK        -0.0933 
     15 C15       -74.4741   29.8936  -72.2732 C.3       11 UNK         0.0166 
     16 S16       -74.1248   31.6381  -71.9066 S.3       11 UNK        -0.2615 
     17 C17       -72.3294   31.5825  -71.5807 C.3       11 UNK        -0.0865 
     18 CA        -71.4849   31.7622  -72.8684 C.3       10 UNK         0.0862 
     19 C         -70.0256   32.1668  -72.5264 C.2       10 UNK         0.5551 
     20 N         -69.7492   33.4599  -72.4318 N.am      10 UNK        -0.7319 
     21 O         -69.1564   31.3252  -72.3062 O.2       10 UNK        -0.5018 
     22 N         -71.5188   30.5517  -73.6995 N.am      10 UNK        -0.4509 
     23 C         -71.2700   30.5156  -75.0106 C.2       10 UNK         0.4899 
     24 O         -71.0886   31.5242  -75.6938 O.2       10 UNK        -0.4839 
     25 CA        -71.2112   29.1389  -75.7005 C.3       9 UNK         0.0222 
     26 CB        -69.7507   28.6774  -75.8687 C.3       9 UNK        -0.1966 
     27 N         -72.0325   28.0673  -75.1148 N.am      9 UNK        -0.4218 
     28 C         -71.9095   27.4415  -73.9339 C.2       9 UNK         0.5020 
     29 O         -71.1455   27.8065  -73.0401 O.2       9 UNK        -0.5274 
     30 CA        -72.7753   26.1866  -73.7090 C.3       8 UNK         0.0270 
     31 CB        -74.1061   26.5330  -73.0257 C.3       8 UNK        -0.1976 
     32 N         -73.0533   25.4451  -74.9398 N.am      8 UNK        -0.4313 
     33 C         -72.1460   24.7606  -75.6503 C.2       8 UNK         0.5041 
     34 O         -70.9592   24.6584  -75.3378 O.2       8 UNK        -0.5577 
     35 CA        -72.6510   24.0799  -76.9306 C.3       7 UNK         0.0284 
     36 CB        -73.3451   22.7467  -76.6042 C.3       7 UNK        -0.1958 
     37 N         -73.5731   24.9494  -77.6626 N.am      7 UNK        -0.4454 
     38 C         -73.1898   25.8957  -78.5302 C.2       7 UNK         0.5089 
     39 O         -72.0196   26.0915  -78.8588 O.2       7 UNK        -0.5125 
     40 CA        -74.2953   26.7787  -79.1379 C.3       6 UNK         0.0408 
     41 CB        -74.7751   26.1912  -80.4745 C.3       6 UNK        -0.1791 
     42 N         -75.4481   26.9729  -78.2537 N.am      6 UNK        -0.4762 
     43 C         -75.4213   27.6734  -77.1102 C.2       6 UNK         0.5007 
     44 O         -74.4141   28.2259  -76.6707 O.2       6 UNK        -0.5032 
     45 CA        -76.7330   27.7324  -76.3023 C.3       5 UNK         0.0783 
     46 C46       -77.6165   28.8896  -76.8326 C.3       11 UNK        -0.0857 
     47 S47       -79.2132   29.0545  -75.9652 S.3       11 UNK        -0.2512 
     48 C48       -78.8548   30.3863  -74.7756 C.3       11 UNK         0.0225 
     49 N         -77.4536   26.4526  -76.2553 N.am      5 UNK        -0.4615 
     50 C         -76.9476   25.2671  -75.8866 C.2       4 UNK         0.5053 
     51 O         -75.7590   25.0922  -75.6193 O.2       4 UNK        -0.5105 
     52 CA        -77.9067   24.0669  -75.7907 C.3       4 UNK         0.0263 
     53 CB        -77.8202   23.4141  -74.3994 C.3       4 UNK        -0.1981 
     54 N         -79.3069   24.3928  -76.0860 N.am      4 UNK        -0.4224 
     55 C         -79.8270   24.4946  -77.3187 C.2       3 UNK         0.4895 
     56 O         -79.1526   24.3997  -78.3448 O.2       3 UNK        -0.5091 
     57 CA        -81.3461   24.7261  -77.4179 C.3       3 UNK         0.0250 
     58 CB        -81.9483   24.1557  -78.7190 C.3       3 UNK        -0.1996 
     59 N         -82.0359   24.1656  -76.2527 N.am      3 UNK        -0.4254 
     60 C         -83.2178   24.5753  -75.7750 C.2       2 UNK         0.5004 
     61 O         -83.8963   25.4707  -76.2789 O.2       2 UNK        -0.5226 
     62 CA        -83.7020   23.8781  -74.4940 C.3       2 UNK         0.0269 
     63 CB        -84.1219   22.4245  -74.7724 C.3       2 UNK        -0.1926 
     64 N         -82.6715   23.9070  -73.4515 N.am      2 UNK        -0.4687 
     65 C         -82.3787   24.9880  -72.7119 C.2       1 UNK         0.5165 
     66 O         -83.0016   26.0474  -72.7961 O.2       1 UNK        -0.5079 
     67 H67       -80.2740   20.9698  -69.7795 H         1 UNK         0.0900 
     68 H68       -79.5691   21.2378  -71.3746 H         1 UNK         0.0900 
     69 H69       -81.1314   20.4304  -71.2257 H         1 UNK         0.0900 
     70 H70       -79.7467   23.3779  -72.0014 H         1 UNK         0.2959 
     71 H71       -81.5819   25.2052  -70.7546 H         1 UNK         0.1079 
     72 H72       -79.6846   25.6896  -73.1148 H         1 UNK         0.0837 
     73 H73       -80.5308   26.9080  -72.2109 H         1 UNK         0.0837 
     74 H74       -79.7064   28.1018  -70.3012 H         1 UNK         0.0685 
     75 H75       -78.1739   27.8463  -69.5126 H         1 UNK         0.0685 
     76 H76       -79.7654   28.9324  -72.6900 H         1 UNK         0.1434 
     77 H77       -76.1823   30.7002  -74.2350 H         1 UNK         0.1329 
     78 H78       -76.0616   28.4588  -70.5800 H         1 UNK         0.1335 
     79 H79       -74.0291   29.2725  -71.4951 H         1 UNK         0.0680 
     80 H80       -73.9965   29.6173  -73.2128 H         1 UNK         0.0680 
     81 H81       -72.0647   30.6593  -71.0616 H         1 UNK         0.1032 
     82 H82       -72.1212   32.3879  -70.8733 H         1 UNK         0.1032 
     83 H83       -71.9234   32.5796  -73.4454 H         1 UNK         0.0461 
     84 H84       -68.8114   33.7451  -72.1956 H         1 UNK         0.3453 
     85 H85       -70.4569   34.1581  -72.6011 H         1 UNK         0.3453 
     86 H86       -71.5284   29.6619  -73.2106 H         1 UNK         0.2984 
     87 H87       -71.6205   29.2871  -76.7012 H         1 UNK         0.0554 
     88 H88       -69.6920   27.7485  -76.4365 H         1 UNK         0.0847 
     89 H89       -69.2633   28.5147  -74.9068 H         1 UNK         0.0847 
     90 H90       -69.1646   29.4240  -76.4061 H         1 UNK         0.0847 
     91 H91       -72.7994   27.7722  -75.7138 H         1 UNK         0.3141 
     92 H92       -72.2185   25.5231  -73.0440 H         1 UNK         0.0743 
     93 H93       -74.7042   27.2163  -73.6289 H         1 UNK         0.0784 
     94 H94       -74.7057   25.6397  -72.8480 H         1 UNK         0.0784 
     95 H95       -73.9349   26.9991  -72.0558 H         1 UNK         0.0784 
     96 H96       -74.0262   25.4127  -75.2423 H         1 UNK         0.3213 
     97 H97       -71.7849   23.8623  -77.5600 H         1 UNK         0.0855 
     98 H98       -74.2211   22.8850  -75.9694 H         1 UNK         0.0814 
     99 H99       -72.6658   22.0747  -76.0781 H         1 UNK         0.0814 
    100 H100      -73.6668   22.2357  -77.5117 H         1 UNK         0.0814 
    101 H101      -74.5490   24.9021  -77.3987 H         1 UNK         0.3105 
    102 H102      -73.8577   27.7594  -79.3367 H         1 UNK         0.0547 
    103 H103      -73.9402   26.0584  -81.1641 H         1 UNK         0.0837 
    104 H104      -75.2463   25.2164  -80.3427 H         1 UNK         0.0837 
    105 H105      -75.4937   26.8493  -80.9632 H         1 UNK         0.0837 
    106 H106      -76.3172   26.5363  -78.5285 H         1 UNK         0.3020 
    107 H107      -76.4538   27.9610  -75.2724 H         1 UNK         0.1245 
    108 H108      -77.0789   29.8382  -76.7745 H         1 UNK         0.0781 
    109 H109      -77.8415   28.7402  -77.8905 H         1 UNK         0.0781 
    110 H110      -79.7987   30.8025  -74.4204 H         1 UNK         0.0836 
    111 H111      -78.3326   31.2056  -75.2720 H         1 UNK         0.0836 
    112 H112      -78.4411   26.5059  -76.4538 H         1 UNK         0.3022 
    113 H113      -77.5628   23.3323  -76.5221 H         1 UNK         0.0747 
    114 H114      -78.5040   22.5701  -74.3088 H         1 UNK         0.0793 
    115 H115      -76.8154   23.0316  -74.2134 H         1 UNK         0.0793 
    116 H116      -78.0418   24.1226  -73.6020 H         1 UNK         0.0793 
    117 H117      -79.9110   24.5506  -75.2942 H         1 UNK         0.3047 
    118 H118      -81.4878   25.8092  -77.4190 H         1 UNK         0.0822 
    119 H119      -83.0150   24.3678  -78.7926 H         1 UNK         0.0807 
    120 H120      -81.8168   23.0749  -78.7803 H         1 UNK         0.0807 
    121 H121      -81.4756   24.5944  -79.5987 H         1 UNK         0.0807 
    122 H122      -81.5747   23.3920  -75.7949 H         1 UNK         0.2946 
    123 H123      -84.5812   24.4191  -74.1350 H         1 UNK         0.1144 
    124 H124      -84.8864   22.3828  -75.5498 H         1 UNK         0.0793 
    125 H125      -84.5439   21.9594  -73.8812 H         1 UNK         0.0793 
    126 H126      -83.2851   21.8095  -75.1050 H         1 UNK         0.0793 
    127 H127      -82.1359   23.0652  -73.2984 H         1 UNK         0.2896 
@<TRIPOS>BOND
     1    1    2 1    
     2    1   67 1    
     3    1   68 1    
     4    1   69 1    
     5    2    3 2    
     6    2    4 am   BACKBONE|DICT|INTERRES
     7    4    5 1    
     8    4   70 1    
     9    5    6 1    
    10    5   65 1    
    11    5   71 1    
    12    6    7 1    
    13    6   72 1    
    14    6   73 1    
    15    7    8 1    
    16    8    9 1    
    17    8   74 1    
    18    8   75 1    
    19    9   10 ar   
    20    9   14 ar   
    21   10   11 ar   
    22   10   76 1    
    23   11   12 ar   
    24   11   48 1    
    25   12   13 ar   
    26   12   77 1    
    27   13   14 ar   
    28   13   15 1    
    29   14   78 1    
    30   15   16 1    
    31   15   79 1    
    32   15   80 1    
    33   16   17 1    
    34   17   18 1    
    35   17   81 1    
    36   17   82 1    
    37   18   19 1    
    38   18   22 1    
    39   18   83 1    
    40   19   20 am   BACKBONE|DICT|INTERRES
    41   19   21 2    
    42   20   84 1    
    43   20   85 1    
    44   22   23 am   BACKBONE|DICT|INTERRES
    45   22   86 1    
    46   23   24 2    
    47   23   25 1    
    48   25   26 1    
    49   25   27 1    
    50   25   87 1    
    51   26   88 1    
    52   26   89 1    
    53   26   90 1    
    54   27   28 am   BACKBONE|DICT|INTERRES
    55   27   91 1    
    56   28   29 2    
    57   28   30 1    
    58   30   31 1    
    59   30   32 1    
    60   30   92 1    
    61   31   93 1    
    62   31   94 1    
    63   31   95 1    
    64   32   33 am   BACKBONE|DICT|INTERRES
    65   32   96 1    
    66   33   34 2    
    67   33   35 1    
    68   35   36 1    
    69   35   37 1    
    70   35   97 1    
    71   36   98 1    
    72   36   99 1    
    73   36  100 1    
    74   37   38 am   BACKBONE|DICT|INTERRES
    75   37  101 1    
    76   38   39 2    
    77   38   40 1    
    78   40   41 1    
    79   40   42 1    
    80   40  102 1    
    81   41  103 1    
    82   41  104 1    
    83   41  105 1    
    84   42   43 am   BACKBONE|DICT|INTERRES
    85   42  106 1    
    86   43   44 2    
    87   43   45 1    
    88   45   46 1    
    89   45   49 1    
    90   45  107 1    
    91   46   47 1    
    92   46  108 1    
    93   46  109 1    
    94   47   48 1    
    95   48  110 1    
    96   48  111 1    
    97   49   50 am   BACKBONE|DICT|INTERRES
    98   49  112 1    
    99   50   51 2    
   100   50   52 1    
   101   52   53 1    
   102   52   54 1    
   103   52  113 1    
   104   53  114 1    
   105   53  115 1    
   106   53  116 1    
   107   54   55 am   BACKBONE|DICT|INTERRES
   108   54  117 1    
   109   55   56 2    
   110   55   57 1    
   111   57   58 1    
   112   57   59 1    
   113   57  118 1    
   114   58  119 1    
   115   58  120 1    
   116   58  121 1    
   117   59   60 am   BACKBONE|DICT|INTERRES
   118   59  122 1    
   119   60   61 2    
   120   60   62 1    
   121   62   63 1    
   122   62   64 1    
   123   62  123 1    
   124   63  124 1    
   125   63  125 1    
   126   63  126 1    
   127   64   65 am   BACKBONE|DICT|INTERRES
   128   64  127 1    
   129   65   66 2    
@<TRIPOS>SUBSTRUCTURE
     1 UNK         1 GROUP             0       ****    0 ROOT    
