@<TRIPOS>MOLECULE
3R135
127   129    1
SMALL
USER_CHARGES


@<TRIPOS>ATOM
      1 CA        -85.2880   25.3831  -72.6505 C.3       0 UNK        -0.1998 
      2 C         -83.8118   25.5109  -72.9939 C.2       0 UNK         0.4909 
      3 O         -83.1752   24.5087  -73.3228 O.2       0 UNK        -0.5240 
      4 N         -83.2719   26.7370  -72.9282 N.am      1 UNK        -0.4739 
      5 CA        -81.8789   27.1364  -73.1950 C.3       1 UNK         0.0864 
      6 C6        -80.8296   26.4200  -72.3026 C.3       11 UNK        -0.0881 
      7 S7        -81.0500   26.8285  -70.5374 S.3       11 UNK        -0.2682 
      8 C8        -79.3468   26.6664  -69.8898 C.3       11 UNK         0.0289 
      9 C9        -78.3257   27.7022  -70.3722 C.ar      11 UNK        -0.0687 
     10 C10       -78.6730   28.8178  -71.1436 C.ar      11 UNK        -0.0823 
     11 C11       -77.6972   29.7163  -71.5803 C.ar      11 UNK        -0.0830 
     12 C12       -76.3673   29.5302  -71.1977 C.ar      11 UNK        -0.1021 
     13 C13       -75.9938   28.4224  -70.4262 C.ar      11 UNK        -0.0753 
     14 C14       -76.9834   27.5182  -70.0245 C.ar      11 UNK        -0.0933 
     15 C15       -74.5456   28.1334  -70.0207 C.3       11 UNK         0.0166 
     16 S16       -73.3632   29.5117  -70.2359 S.3       11 UNK        -0.2615 
     17 C17       -72.4884   29.0850  -71.7881 C.3       11 UNK        -0.0865 
     18 CA        -73.0222   29.7993  -73.0678 C.3       10 UNK         0.0862 
     19 C         -72.7228   31.3306  -73.1625 C.2       10 UNK         0.5551 
     20 N         -72.6177   32.0359  -72.0457 N.am      10 UNK        -0.7319 
     21 O         -72.6317   31.9022  -74.2480 O.2       10 UNK        -0.5018 
     22 N         -72.6445   29.0753  -74.2906 N.am      10 UNK        -0.4509 
     23 C         -71.4048   28.9271  -74.7733 C.2       10 UNK         0.4899 
     24 O         -70.3853   29.2978  -74.1878 O.2       10 UNK        -0.4839 
     25 CA        -71.3066   28.2431  -76.1502 C.3       9 UNK         0.0222 
     26 CB        -69.8734   28.2372  -76.7240 C.3       9 UNK        -0.1966 
     27 N         -71.8736   26.8894  -76.1493 N.am      9 UNK        -0.4218 
     28 C         -71.4805   25.8386  -75.4095 C.2       9 UNK         0.5020 
     29 O         -70.5545   25.8782  -74.5981 O.2       9 UNK        -0.5274 
     30 CA        -72.2325   24.5038  -75.5921 C.3       8 UNK         0.0270 
     31 CB        -73.0078   24.1396  -74.3185 C.3       8 UNK        -0.1976 
     32 N         -73.1549   24.4889  -76.7298 N.am      8 UNK        -0.4313 
     33 C         -72.7796   24.3822  -78.0104 C.2       8 UNK         0.5041 
     34 O         -71.6119   24.2394  -78.3749 O.2       8 UNK        -0.5577 
     35 CA        -73.8931   24.4806  -79.0650 C.3       7 UNK         0.0284 
     36 CB        -74.5247   23.1021  -79.3190 C.3       7 UNK        -0.1958 
     37 N         -74.9420   25.4463  -78.7198 N.am      7 UNK        -0.4454 
     38 C         -74.7634   26.7696  -78.6143 C.2       7 UNK         0.5089 
     39 O         -73.6678   27.3219  -78.7145 O.2       7 UNK        -0.5125 
     40 CA        -76.0230   27.6184  -78.3760 C.3       6 UNK         0.0408 
     41 CB        -77.1455   27.2856  -79.3762 C.3       6 UNK        -0.1791 
     42 N         -76.5414   27.5154  -77.0124 N.am      6 UNK        -0.4762 
     43 C         -75.9475   28.0218  -75.9221 C.2       6 UNK         0.5007 
     44 O         -74.8228   28.5191  -75.9237 O.2       6 UNK        -0.5032 
     45 CA        -76.7509   27.9714  -74.6111 C.3       5 UNK         0.0783 
     46 C46       -77.9413   28.9664  -74.6297 C.3       11 UNK        -0.0857 
     47 S47       -77.4073   30.6577  -74.1849 S.3       11 UNK        -0.2512 
     48 C48       -78.0788   30.8682  -72.4998 C.3       11 UNK         0.0225 
     49 N         -77.1730   26.5950  -74.3576 N.am      5 UNK        -0.4615 
     50 C         -76.5215   25.7543  -73.5414 C.2       4 UNK         0.5053 
     51 O         -75.5927   26.0951  -72.8113 O.2       4 UNK        -0.5105 
     52 CA        -76.9406   24.2714  -73.5462 C.3       4 UNK         0.0263 
     53 CB        -77.7776   23.9329  -72.3038 C.3       4 UNK        -0.1981 
     54 N         -77.6643   23.8619  -74.7521 N.am      4 UNK        -0.4224 
     55 C         -77.1220   23.8003  -75.9762 C.2       3 UNK         0.4895 
     56 O         -75.9376   24.0361  -76.2136 O.2       3 UNK        -0.5091 
     57 CA        -78.0687   23.4723  -77.1443 C.3       3 UNK         0.0250 
     58 CB        -78.0916   21.9583  -77.4049 C.3       3 UNK        -0.1996 
     59 N         -79.4440   23.9606  -76.9738 N.am      3 UNK        -0.4254 
     60 C         -79.8009   25.2375  -76.7670 C.2       2 UNK         0.5004 
     61 O         -78.9852   26.1514  -76.6353 O.2       2 UNK        -0.5226 
     62 CA        -81.3052   25.5498  -76.6700 C.3       2 UNK         0.0269 
     63 CB        -82.2184   24.4139  -77.1747 C.3       2 UNK        -0.1926 
     64 N         -81.6649   25.8651  -75.2887 N.am      2 UNK        -0.4687 
     65 C         -81.5045   27.0503  -74.6890 C.2       1 UNK         0.5165 
     66 O         -81.1020   28.0599  -75.2663 O.2       1 UNK        -0.5079 
     67 H67       -85.8377   24.9837  -73.5023 H         1 UNK         0.0900 
     68 H68       -85.4186   24.7015  -71.8104 H         1 UNK         0.0900 
     69 H69       -85.7298   26.3421  -72.3806 H         1 UNK         0.0900 
     70 H70       -83.8757   27.5051  -72.6692 H         1 UNK         0.2959 
     71 H71       -81.8343   28.1990  -72.9487 H         1 UNK         0.1079 
     72 H72       -80.8890   25.3375  -72.4174 H         1 UNK         0.0837 
     73 H73       -79.8190   26.6990  -72.6058 H         1 UNK         0.0837 
     74 H74       -79.3982   26.7240  -68.8017 H         1 UNK         0.0685 
     75 H75       -78.9843   25.6652  -70.1249 H         1 UNK         0.0685 
     76 H76       -79.6997   28.9867  -71.4321 H         1 UNK         0.1434 
     77 H77       -75.6323   30.2461  -71.5312 H         1 UNK         0.1329 
     78 H78       -76.7027   26.6547  -69.4366 H         1 UNK         0.1335 
     79 H79       -74.1986   27.2520  -70.5612 H         1 UNK         0.0680 
     80 H80       -74.5325   27.8627  -68.9639 H         1 UNK         0.0680 
     81 H81       -71.4280   29.3051  -71.6534 H         1 UNK         0.1032 
     82 H82       -72.5379   28.0037  -71.9246 H         1 UNK         0.1032 
     83 H83       -74.1079   29.7251  -73.0592 H         1 UNK         0.0461 
     84 H84       -72.4424   33.0269  -72.0958 H         1 UNK         0.3453 
     85 H85       -72.7207   31.5793  -71.1505 H         1 UNK         0.3453 
     86 H86       -73.4223   28.7953  -74.8875 H         1 UNK         0.2984 
     87 H87       -71.9264   28.8294  -76.8306 H         1 UNK         0.0554 
     88 H88       -69.4861   29.2529  -76.8121 H         1 UNK         0.0847 
     89 H89       -69.8476   27.7927  -77.7189 H         1 UNK         0.0847 
     90 H90       -69.1821   27.6810  -76.0901 H         1 UNK         0.0847 
     91 H91       -72.6461   26.7541  -76.7905 H         1 UNK         0.3141 
     92 H92       -71.4782   23.7314  -75.7568 H         1 UNK         0.0743 
     93 H93       -72.3392   24.0529  -73.4610 H         1 UNK         0.0784 
     94 H94       -73.7435   24.9042  -74.0808 H         1 UNK         0.0784 
     95 H95       -73.5295   23.1882  -74.4239 H         1 UNK         0.0784 
     96 H96       -74.1523   24.5246  -76.5227 H         1 UNK         0.3213 
     97 H97       -73.4311   24.8183  -79.9953 H         1 UNK         0.0855 
     98 H98       -75.0025   22.7041  -78.4236 H         1 UNK         0.0814 
     99 H99       -73.7679   22.3803  -79.6296 H         1 UNK         0.0814 
    100 H100      -75.2730   23.1451  -80.1105 H         1 UNK         0.0814 
    101 H101      -75.8632   25.0730  -78.5525 H         1 UNK         0.3105 
    102 H102      -75.7407   28.6602  -78.5429 H         1 UNK         0.0547 
    103 H103      -77.9571   28.0102  -79.3074 H         1 UNK         0.0837 
    104 H104      -76.7775   27.3123  -80.4028 H         1 UNK         0.0837 
    105 H105      -77.5745   26.2981  -79.2056 H         1 UNK         0.0837 
    106 H106      -77.4615   27.0898  -76.9090 H         1 UNK         0.3020 
    107 H107      -76.0743   28.2809  -73.8111 H         1 UNK         0.1245 
    108 H108      -78.7119   28.6467  -73.9291 H         1 UNK         0.0781 
    109 H109      -78.4395   28.9914  -75.6010 H         1 UNK         0.0781 
    110 H110      -79.1631   30.9731  -72.5636 H         1 UNK         0.0836 
    111 H111      -77.7054   31.8042  -72.0821 H         1 UNK         0.0836 
    112 H112      -77.8957   26.2342  -74.9707 H         1 UNK         0.3022 
    113 H113      -76.0212   23.6839  -73.4983 H         1 UNK         0.0747 
    114 H114      -77.9701   22.8622  -72.2348 H         1 UNK         0.0793 
    115 H115      -77.2567   24.2263  -71.3910 H         1 UNK         0.0793 
    116 H116      -78.7366   24.4463  -72.3119 H         1 UNK         0.0793 
    117 H117      -78.6459   23.6497  -74.6511 H         1 UNK         0.3047 
    118 H118      -77.6640   23.9608  -78.0320 H         1 UNK         0.0822 
    119 H119      -77.0825   21.5687  -77.5470 H         1 UNK         0.0807 
    120 H120      -78.6574   21.7184  -78.3053 H         1 UNK         0.0807 
    121 H121      -78.5362   21.4114  -76.5724 H         1 UNK         0.0807 
    122 H122      -80.1785   23.2731  -77.0619 H         1 UNK         0.2946 
    123 H123      -81.4829   26.4275  -77.2959 H         1 UNK         0.1144 
    124 H124      -83.2621   24.7295  -77.1757 H         1 UNK         0.0793 
    125 H125      -82.1513   23.5202  -76.5529 H         1 UNK         0.0793 
    126 H126      -81.9732   24.1326  -78.2000 H         1 UNK         0.0793 
    127 H127      -82.0571   25.1154  -74.7239 H         1 UNK         0.2896 
@<TRIPOS>BOND
     1    1    2 1    
     2    1   67 1    
     3    1   68 1    
     4    1   69 1    
     5    2    3 2    
     6    2    4 am   BACKBONE|DICT|INTERRES
     7    4    5 1    
     8    4   70 1    
     9    5    6 1    
    10    5   65 1    
    11    5   71 1    
    12    6    7 1    
    13    6   72 1    
    14    6   73 1    
    15    7    8 1    
    16    8    9 1    
    17    8   74 1    
    18    8   75 1    
    19    9   10 ar   
    20    9   14 ar   
    21   10   11 ar   
    22   10   76 1    
    23   11   12 ar   
    24   11   48 1    
    25   12   13 ar   
    26   12   77 1    
    27   13   14 ar   
    28   13   15 1    
    29   14   78 1    
    30   15   16 1    
    31   15   79 1    
    32   15   80 1    
    33   16   17 1    
    34   17   18 1    
    35   17   81 1    
    36   17   82 1    
    37   18   19 1    
    38   18   22 1    
    39   18   83 1    
    40   19   20 am   BACKBONE|DICT|INTERRES
    41   19   21 2    
    42   20   84 1    
    43   20   85 1    
    44   22   23 am   BACKBONE|DICT|INTERRES
    45   22   86 1    
    46   23   24 2    
    47   23   25 1    
    48   25   26 1    
    49   25   27 1    
    50   25   87 1    
    51   26   88 1    
    52   26   89 1    
    53   26   90 1    
    54   27   28 am   BACKBONE|DICT|INTERRES
    55   27   91 1    
    56   28   29 2    
    57   28   30 1    
    58   30   31 1    
    59   30   32 1    
    60   30   92 1    
    61   31   93 1    
    62   31   94 1    
    63   31   95 1    
    64   32   33 am   BACKBONE|DICT|INTERRES
    65   32   96 1    
    66   33   34 2    
    67   33   35 1    
    68   35   36 1    
    69   35   37 1    
    70   35   97 1    
    71   36   98 1    
    72   36   99 1    
    73   36  100 1    
    74   37   38 am   BACKBONE|DICT|INTERRES
    75   37  101 1    
    76   38   39 2    
    77   38   40 1    
    78   40   41 1    
    79   40   42 1    
    80   40  102 1    
    81   41  103 1    
    82   41  104 1    
    83   41  105 1    
    84   42   43 am   BACKBONE|DICT|INTERRES
    85   42  106 1    
    86   43   44 2    
    87   43   45 1    
    88   45   46 1    
    89   45   49 1    
    90   45  107 1    
    91   46   47 1    
    92   46  108 1    
    93   46  109 1    
    94   47   48 1    
    95   48  110 1    
    96   48  111 1    
    97   49   50 am   BACKBONE|DICT|INTERRES
    98   49  112 1    
    99   50   51 2    
   100   50   52 1    
   101   52   53 1    
   102   52   54 1    
   103   52  113 1    
   104   53  114 1    
   105   53  115 1    
   106   53  116 1    
   107   54   55 am   BACKBONE|DICT|INTERRES
   108   54  117 1    
   109   55   56 2    
   110   55   57 1    
   111   57   58 1    
   112   57   59 1    
   113   57  118 1    
   114   58  119 1    
   115   58  120 1    
   116   58  121 1    
   117   59   60 am   BACKBONE|DICT|INTERRES
   118   59  122 1    
   119   60   61 2    
   120   60   62 1    
   121   62   63 1    
   122   62   64 1    
   123   62  123 1    
   124   63  124 1    
   125   63  125 1    
   126   63  126 1    
   127   64   65 am   BACKBONE|DICT|INTERRES
   128   64  127 1    
   129   65   66 2    
@<TRIPOS>SUBSTRUCTURE
     1 UNK         1 GROUP             0       ****    0 ROOT    
