@<TRIPOS>MOLECULE
3R135
127   129    1
SMALL
USER_CHARGES


@<TRIPOS>ATOM
      1 CA        -82.5587   30.7313  -76.1334 C.3       0 UNK        -0.1998 
      2 C         -81.4571   29.6983  -76.3158 C.2       0 UNK         0.4909 
      3 O         -81.0413   29.4379  -77.4450 O.2       0 UNK        -0.5240 
      4 N         -80.9809   29.1061  -75.2127 N.am      1 UNK        -0.4739 
      5 CA        -79.9374   28.0730  -75.2029 C.3       1 UNK         0.0864 
      6 C6        -79.2974   27.9226  -73.8012 C.3       11 UNK        -0.0881 
      7 S7        -80.4856   27.4642  -72.4859 S.3       11 UNK        -0.2682 
      8 C8        -79.9772   28.5559  -71.1139 C.3       11 UNK         0.0289 
      9 C9        -78.5355   28.3310  -70.6671 C.ar      11 UNK        -0.0687 
     10 C10       -78.0403   27.0374  -70.4721 C.ar      11 UNK        -0.0823 
     11 C11       -76.7046   26.8309  -70.1172 C.ar      11 UNK        -0.0830 
     12 C12       -75.8794   27.9335  -69.8834 C.ar      11 UNK        -0.1021 
     13 C13       -76.3689   29.2336  -70.0372 C.ar      11 UNK        -0.0753 
     14 C14       -77.6939   29.4257  -70.4421 C.ar      11 UNK        -0.0933 
     15 C15       -75.4731   30.4272  -69.7347 C.3       11 UNK         0.0166 
     16 S16       -73.9754   30.4655  -70.7702 S.3       11 UNK        -0.2615 
     17 C17       -74.6491   30.9236  -72.4057 C.3       11 UNK        -0.0865 
     18 CA        -74.3054   29.9017  -73.5312 C.3       10 UNK         0.0862 
     19 C         -74.9287   30.3173  -74.8997 C.2       10 UNK         0.5551 
     20 N         -74.2304   30.1853  -76.0221 N.am      10 UNK        -0.7319 
     21 O         -76.0780   30.7479  -74.9485 O.2       10 UNK        -0.5018 
     22 N         -72.8737   29.5554  -73.6031 N.am      10 UNK        -0.4509 
     23 C         -71.8584   30.4027  -73.8244 C.2       10 UNK         0.4899 
     24 O         -71.9816   31.6241  -73.9192 O.2       10 UNK        -0.4839 
     25 CA        -70.4565   29.7858  -73.9920 C.3       9 UNK         0.0222 
     26 CB        -69.6829   29.8592  -72.6653 C.3       9 UNK        -0.1966 
     27 N         -70.4459   28.4009  -74.4812 N.am      9 UNK        -0.4218 
     28 C         -70.9564   27.9777  -75.6470 C.2       9 UNK         0.5020 
     29 O         -71.5301   28.7225  -76.4462 O.2       9 UNK        -0.5274 
     30 CA        -70.7930   26.4815  -75.9718 C.3       8 UNK         0.0270 
     31 CB        -70.7967   25.5808  -74.7185 C.3       8 UNK        -0.1976 
     32 N         -71.8813   26.0582  -76.8484 N.am      8 UNK        -0.4313 
     33 C         -71.7513   25.5099  -78.0627 C.2       8 UNK         0.5041 
     34 O         -70.6628   25.2722  -78.5896 O.2       8 UNK        -0.5577 
     35 CA        -73.0404   25.1334  -78.8232 C.3       7 UNK         0.0284 
     36 CB        -73.1598   23.6058  -78.9577 C.3       7 UNK        -0.1958 
     37 N         -74.2603   25.6447  -78.1936 N.am      7 UNK        -0.4454 
     38 C         -74.6881   26.9135  -78.2749 C.2       7 UNK         0.5089 
     39 O         -74.1513   27.7705  -78.9764 O.2       7 UNK        -0.5125 
     40 CA        -75.9156   27.2988  -77.4243 C.3       6 UNK         0.0408 
     41 CB        -77.1835   27.2390  -78.2916 C.3       6 UNK        -0.1791 
     42 N         -76.1093   26.4675  -76.2307 N.am      6 UNK        -0.4762 
     43 C         -75.2132   26.2439  -75.2526 C.2       6 UNK         0.5007 
     44 O         -74.1373   26.8340  -75.1674 O.2       6 UNK        -0.5032 
     45 CA        -75.5381   25.1275  -74.2345 C.3       5 UNK         0.0783 
     46 C46       -75.7928   25.7300  -72.8326 C.3       11 UNK        -0.0857 
     47 S47       -76.3080   24.4919  -71.5908 S.3       11 UNK        -0.2512 
     48 C48       -76.1389   25.4193  -70.0261 C.3       11 UNK         0.0225 
     49 N         -76.6312   24.2576  -74.6902 N.am      5 UNK        -0.4615 
     50 C         -76.5733   23.4311  -75.7441 C.2       4 UNK         0.5053 
     51 O         -75.5641   23.2953  -76.4372 O.2       4 UNK        -0.5105 
     52 CA        -77.8695   22.7156  -76.1570 C.3       4 UNK         0.0263 
     53 CB        -77.6680   21.2015  -76.3749 C.3       4 UNK        -0.1981 
     54 N         -79.0141   23.0293  -75.2897 N.am      4 UNK        -0.4224 
     55 C         -79.3457   22.5100  -74.0959 C.2       3 UNK         0.4895 
     56 O         -78.7105   21.6177  -73.5350 O.2       3 UNK        -0.5091 
     57 CA        -80.5797   23.1030  -73.3771 C.3       3 UNK         0.0250 
     58 CB        -80.1760   23.6850  -72.0114 C.3       3 UNK        -0.1996 
     59 N         -81.2719   24.1493  -74.1371 N.am      3 UNK        -0.4254 
     60 C         -81.9947   23.9656  -75.2516 C.2       2 UNK         0.5004 
     61 O         -82.2743   22.8560  -75.7049 O.2       2 UNK        -0.5226 
     62 CA        -82.4399   25.2258  -76.0209 C.3       2 UNK         0.0269 
     63 CB        -83.9546   25.4416  -75.8700 C.3       2 UNK        -0.1926 
     64 N         -81.7453   26.4615  -75.6357 N.am      2 UNK        -0.4687 
     65 C         -80.4286   26.7078  -75.7356 C.2       1 UNK         0.5165 
     66 O         -79.6110   25.8931  -76.1703 O.2       1 UNK        -0.5079 
     67 H67       -82.2367   31.6957  -76.5253 H         1 UNK         0.0900 
     68 H68       -82.8247   30.8633  -75.0848 H         1 UNK         0.0900 
     69 H69       -83.4535   30.4248  -76.6745 H         1 UNK         0.0900 
     70 H70       -81.3538   29.3548  -74.3068 H         1 UNK         0.2959 
     71 H71       -79.1489   28.4025  -75.8819 H         1 UNK         0.1079 
     72 H72       -78.8028   28.8574  -73.5314 H         1 UNK         0.0837 
     73 H73       -78.5070   27.1723  -73.8257 H         1 UNK         0.0837 
     74 H74       -80.1310   29.5920  -71.4193 H         1 UNK         0.0685 
     75 H75       -80.6377   28.3816  -70.2638 H         1 UNK         0.0685 
     76 H76       -78.6827   26.1849  -70.6407 H         1 UNK         0.1434 
     77 H77       -74.8485   27.7852  -69.5917 H         1 UNK         0.1329 
     78 H78       -78.0741   30.4298  -70.5717 H         1 UNK         0.1335 
     79 H79       -75.1699   30.3771  -68.6881 H         1 UNK         0.0680 
     80 H80       -76.0141   31.3677  -69.8504 H         1 UNK         0.0680 
     81 H81       -74.2734   31.9155  -72.6609 H         1 UNK         0.1032 
     82 H82       -75.7319   31.0334  -72.3241 H         1 UNK         0.1032 
     83 H83       -74.8054   28.9673  -73.2732 H         1 UNK         0.0461 
     84 H84       -73.3039   29.7746  -76.0103 H         1 UNK         0.3453 
     85 H85       -74.6445   30.4613  -76.8968 H         1 UNK         0.3453 
     86 H86       -72.6715   28.5668  -73.5846 H         1 UNK         0.2984 
     87 H87       -69.9252   30.3913  -74.7291 H         1 UNK         0.0554 
     88 H88       -68.6525   29.5235  -72.7839 H         1 UNK         0.0847 
     89 H89       -70.1508   29.2498  -71.8909 H         1 UNK         0.0847 
     90 H90       -69.6455   30.8838  -72.2920 H         1 UNK         0.0847 
     91 H91       -69.9961   27.7194  -73.8871 H         1 UNK         0.3141 
     92 H92       -69.8315   26.3718  -76.4771 H         1 UNK         0.0743 
     93 H93       -70.7733   24.5265  -74.9954 H         1 UNK         0.0784 
     94 H94       -69.9226   25.7574  -74.0910 H         1 UNK         0.0784 
     95 H95       -71.6871   25.7400  -74.1081 H         1 UNK         0.0784 
     96 H96       -72.8088   26.3034  -76.5144 H         1 UNK         0.3213 
     97 H97       -72.9607   25.5588  -79.8260 H         1 UNK         0.0855 
     98 H98       -73.2241   23.1196  -77.9833 H         1 UNK         0.0814 
     99 H99       -72.2936   23.1888  -79.4732 H         1 UNK         0.0814 
    100 H100      -74.0431   23.3244  -79.5314 H         1 UNK         0.0814 
    101 H101      -74.7680   24.9956  -77.6029 H         1 UNK         0.3105 
    102 H102      -75.7821   28.3271  -77.0926 H         1 UNK         0.0547 
    103 H103      -77.4169   26.2186  -78.5980 H         1 UNK         0.0837 
    104 H104      -78.0497   27.6365  -77.7663 H         1 UNK         0.0837 
    105 H105      -77.0652   27.8324  -79.1995 H         1 UNK         0.0837 
    106 H106      -76.9719   25.9418  -76.1968 H         1 UNK         0.3020 
    107 H107      -74.6428   24.5048  -74.1682 H         1 UNK         0.1245 
    108 H108      -74.8903   26.2258  -72.4689 H         1 UNK         0.0781 
    109 H109      -76.5605   26.5019  -72.8827 H         1 UNK         0.0781 
    110 H110      -76.6519   24.8757  -69.2318 H         1 UNK         0.0836 
    111 H111      -75.0834   25.4433  -69.7508 H         1 UNK         0.0836 
    112 H112      -77.4853   24.2951  -74.1550 H         1 UNK         0.3022 
    113 H113      -78.1328   23.1404  -77.1269 H         1 UNK         0.0747 
    114 H114      -78.6001   20.7115  -76.6559 H         1 UNK         0.0793 
    115 H115      -76.9514   21.0187  -77.1767 H         1 UNK         0.0793 
    116 H116      -77.2799   20.7075  -75.4840 H         1 UNK         0.0793 
    117 H117      -79.5796   23.8025  -75.6225 H         1 UNK         0.3047 
    118 H118      -81.2808   22.2825  -73.2107 H         1 UNK         0.0822 
    119 H119      -81.0391   24.0752  -71.4716 H         1 UNK         0.0807 
    120 H120      -79.4539   24.4942  -72.1210 H         1 UNK         0.0807 
    121 H121      -79.7167   22.9247  -71.3779 H         1 UNK         0.0807 
    122 H122      -81.1164   25.1007  -73.8342 H         1 UNK         0.2946 
    123 H123      -82.2207   25.0431  -77.0753 H         1 UNK         0.1144 
    124 H124      -84.3016   26.2702  -76.4876 H         1 UNK         0.0793 
    125 H125      -84.2306   25.6529  -74.8361 H         1 UNK         0.0793 
    126 H126      -84.5098   24.5553  -76.1809 H         1 UNK         0.0793 
    127 H127      -82.3199   27.1944  -75.2449 H         1 UNK         0.2896 
@<TRIPOS>BOND
     1    1    2 1    
     2    1   67 1    
     3    1   68 1    
     4    1   69 1    
     5    2    3 2    
     6    2    4 am   BACKBONE|DICT|INTERRES
     7    4    5 1    
     8    4   70 1    
     9    5    6 1    
    10    5   65 1    
    11    5   71 1    
    12    6    7 1    
    13    6   72 1    
    14    6   73 1    
    15    7    8 1    
    16    8    9 1    
    17    8   74 1    
    18    8   75 1    
    19    9   10 ar   
    20    9   14 ar   
    21   10   11 ar   
    22   10   76 1    
    23   11   12 ar   
    24   11   48 1    
    25   12   13 ar   
    26   12   77 1    
    27   13   14 ar   
    28   13   15 1    
    29   14   78 1    
    30   15   16 1    
    31   15   79 1    
    32   15   80 1    
    33   16   17 1    
    34   17   18 1    
    35   17   81 1    
    36   17   82 1    
    37   18   19 1    
    38   18   22 1    
    39   18   83 1    
    40   19   20 am   BACKBONE|DICT|INTERRES
    41   19   21 2    
    42   20   84 1    
    43   20   85 1    
    44   22   23 am   BACKBONE|DICT|INTERRES
    45   22   86 1    
    46   23   24 2    
    47   23   25 1    
    48   25   26 1    
    49   25   27 1    
    50   25   87 1    
    51   26   88 1    
    52   26   89 1    
    53   26   90 1    
    54   27   28 am   BACKBONE|DICT|INTERRES
    55   27   91 1    
    56   28   29 2    
    57   28   30 1    
    58   30   31 1    
    59   30   32 1    
    60   30   92 1    
    61   31   93 1    
    62   31   94 1    
    63   31   95 1    
    64   32   33 am   BACKBONE|DICT|INTERRES
    65   32   96 1    
    66   33   34 2    
    67   33   35 1    
    68   35   36 1    
    69   35   37 1    
    70   35   97 1    
    71   36   98 1    
    72   36   99 1    
    73   36  100 1    
    74   37   38 am   BACKBONE|DICT|INTERRES
    75   37  101 1    
    76   38   39 2    
    77   38   40 1    
    78   40   41 1    
    79   40   42 1    
    80   40  102 1    
    81   41  103 1    
    82   41  104 1    
    83   41  105 1    
    84   42   43 am   BACKBONE|DICT|INTERRES
    85   42  106 1    
    86   43   44 2    
    87   43   45 1    
    88   45   46 1    
    89   45   49 1    
    90   45  107 1    
    91   46   47 1    
    92   46  108 1    
    93   46  109 1    
    94   47   48 1    
    95   48  110 1    
    96   48  111 1    
    97   49   50 am   BACKBONE|DICT|INTERRES
    98   49  112 1    
    99   50   51 2    
   100   50   52 1    
   101   52   53 1    
   102   52   54 1    
   103   52  113 1    
   104   53  114 1    
   105   53  115 1    
   106   53  116 1    
   107   54   55 am   BACKBONE|DICT|INTERRES
   108   54  117 1    
   109   55   56 2    
   110   55   57 1    
   111   57   58 1    
   112   57   59 1    
   113   57  118 1    
   114   58  119 1    
   115   58  120 1    
   116   58  121 1    
   117   59   60 am   BACKBONE|DICT|INTERRES
   118   59  122 1    
   119   60   61 2    
   120   60   62 1    
   121   62   63 1    
   122   62   64 1    
   123   62  123 1    
   124   63  124 1    
   125   63  125 1    
   126   63  126 1    
   127   64   65 am   BACKBONE|DICT|INTERRES
   128   64  127 1    
   129   65   66 2    
@<TRIPOS>SUBSTRUCTURE
     1 UNK         1 GROUP             0       ****    0 ROOT    
