@<TRIPOS>MOLECULE
3R135
127   129    1
SMALL
USER_CHARGES


@<TRIPOS>ATOM
      1 CA        -81.2971   23.3331  -69.7466 C.3       0 UNK        -0.1998 
      2 C         -82.2901   23.8219  -70.7901 C.2       0 UNK         0.4909 
      3 O         -83.3748   23.2543  -70.9194 O.2       0 UNK        -0.5240 
      4 N         -81.9244   24.8682  -71.5415 N.am      1 UNK        -0.4739 
      5 CA        -82.7417   25.4736  -72.6024 C.3       1 UNK         0.0864 
      6 C6        -82.4170   26.9791  -72.7879 C.3       11 UNK        -0.0881 
      7 S7        -80.6526   27.3463  -73.1062 S.3       11 UNK        -0.2682 
      8 C8        -80.2245   28.2371  -71.5771 C.3       11 UNK         0.0289 
      9 C9        -78.8299   28.8387  -71.6452 C.ar      11 UNK        -0.0687 
     10 C10       -78.6303   30.0617  -72.2897 C.ar      11 UNK        -0.0823 
     11 C11       -77.3592   30.6418  -72.3352 C.ar      11 UNK        -0.0830 
     12 C12       -76.2860   29.9945  -71.7170 C.ar      11 UNK        -0.1021 
     13 C13       -76.4652   28.7558  -71.0938 C.ar      11 UNK        -0.0753 
     14 C14       -77.7438   28.1900  -71.0506 C.ar      11 UNK        -0.0933 
     15 C15       -75.2887   28.0287  -70.4555 C.3       11 UNK         0.0166 
     16 S16       -73.9942   27.5990  -71.6678 S.3       11 UNK        -0.2615 
     17 C17       -72.8154   28.9840  -71.4885 C.3       11 UNK        -0.0865 
     18 CA        -72.5637   29.7732  -72.8006 C.3       10 UNK         0.0862 
     19 C         -71.6661   31.0057  -72.4962 C.2       10 UNK         0.5551 
     20 N         -72.2442   32.1978  -72.4367 N.am      10 UNK        -0.7319 
     21 O         -70.4656   30.8780  -72.2628 O.2       10 UNK        -0.5018 
     22 N         -72.0271   28.8942  -73.8515 N.am      10 UNK        -0.4509 
     23 C         -71.5929   29.2550  -75.0660 C.2       10 UNK         0.4899 
     24 O         -71.5814   30.4173  -75.4717 O.2       10 UNK        -0.4839 
     25 CA        -71.0887   28.1496  -76.0178 C.3       9 UNK         0.0222 
     26 CB        -69.5481   28.1011  -76.0309 C.3       9 UNK        -0.1966 
     27 N         -71.6587   26.8070  -75.8208 N.am      9 UNK        -0.4218 
     28 C         -71.5241   25.9697  -74.7794 C.2       9 UNK         0.5020 
     29 O         -70.8847   26.2461  -73.7638 O.2       9 UNK        -0.5274 
     30 CA        -72.2247   24.6017  -74.8754 C.3       8 UNK         0.0270 
     31 CB        -72.8879   24.2020  -73.5436 C.3       8 UNK        -0.1976 
     32 N         -73.2393   24.5949  -75.9318 N.am      8 UNK        -0.4313 
     33 C         -73.2262   23.8059  -77.0124 C.2       8 UNK         0.5041 
     34 O         -72.3619   22.9550  -77.2285 O.2       8 UNK        -0.5577 
     35 CA        -74.3562   23.9911  -78.0401 C.3       7 UNK         0.0284 
     36 CB        -75.5287   23.0448  -77.7347 C.3       7 UNK        -0.1958 
     37 N         -74.8598   25.3623  -78.1690 N.am      7 UNK        -0.4454 
     38 C         -74.1521   26.4039  -78.6305 C.2       7 UNK         0.5089 
     39 O         -72.9408   26.3692  -78.8458 O.2       7 UNK        -0.5125 
     40 CA        -74.9266   27.7049  -78.8860 C.3       6 UNK         0.0408 
     41 CB        -75.9099   27.5436  -80.0579 C.3       6 UNK        -0.1791 
     42 N         -75.6540   28.0980  -77.6823 N.am      6 UNK        -0.4762 
     43 C         -75.2307   29.0224  -76.8080 C.2       6 UNK         0.5007 
     44 O         -74.2649   29.7543  -77.0162 O.2       6 UNK        -0.5032 
     45 CA        -76.0010   29.1505  -75.4716 C.3       5 UNK         0.0783 
     46 C46       -76.8951   30.4226  -75.4520 C.3       11 UNK        -0.0857 
     47 S47       -76.0879   31.7847  -74.5399 S.3       11 UNK        -0.2512 
     48 C48       -77.1480   31.9614  -73.0652 C.3       11 UNK         0.0225 
     49 N         -76.7467   27.9370  -75.1109 N.am      5 UNK        -0.4615 
     50 C         -76.1735   26.7496  -74.8683 C.2       4 UNK         0.5053 
     51 O         -74.9600   26.5601  -74.9096 O.2       4 UNK        -0.5105 
     52 CA        -77.0981   25.5441  -74.6410 C.3       4 UNK         0.0263 
     53 CB        -77.3579   25.3126  -73.1467 C.3       4 UNK        -0.1981 
     54 N         -78.3716   25.6135  -75.3642 N.am      4 UNK        -0.4224 
     55 C         -78.5017   25.6873  -76.6980 C.2       3 UNK         0.4895 
     56 O         -77.5461   25.8201  -77.4653 O.2       3 UNK        -0.5091 
     57 CA        -79.9341   25.6007  -77.2635 C.3       3 UNK         0.0250 
     58 CB        -79.9561   25.1946  -78.7524 C.3       3 UNK        -0.1996 
     59 N         -80.8179   24.7317  -76.4730 N.am      3 UNK        -0.4254 
     60 C         -80.6457   23.4321  -76.1823 C.2       2 UNK         0.5004 
     61 O         -79.7104   22.7513  -76.6062 O.2       2 UNK        -0.5226 
     62 CA        -81.6733   22.8082  -75.2158 C.3       2 UNK         0.0269 
     63 CB        -81.2797   21.3881  -74.7664 C.3       2 UNK        -0.1926 
     64 N         -81.8719   23.6386  -74.0226 N.am      2 UNK        -0.4687 
     65 C         -82.6839   24.7022  -73.9407 C.2       1 UNK         0.5165 
     66 O         -83.3530   25.0997  -74.8959 O.2       1 UNK        -0.5079 
     67 H67       -81.7380   23.3950  -68.7521 H         1 UNK         0.0900 
     68 H68       -81.0327   22.2934  -69.9380 H         1 UNK         0.0900 
     69 H69       -80.3801   23.9222  -69.7479 H         1 UNK         0.0900 
     70 H70       -81.0191   25.2944  -71.4027 H         1 UNK         0.2959 
     71 H71       -83.7873   25.4158  -72.2905 H         1 UNK         0.1079 
     72 H72       -83.0074   27.4072  -73.6005 H         1 UNK         0.0837 
     73 H73       -82.7412   27.5183  -71.8966 H         1 UNK         0.0837 
     74 H74       -80.3067   27.5584  -70.7268 H         1 UNK         0.0685 
     75 H75       -80.9498   29.0342  -71.4057 H         1 UNK         0.0685 
     76 H76       -79.4685   30.5580  -72.7597 H         1 UNK         0.1434 
     77 H77       -75.3065   30.4471  -71.7432 H         1 UNK         0.1329 
     78 H78       -77.8955   27.2410  -70.5549 H         1 UNK         0.1335 
     79 H79       -74.8798   28.6297  -69.6429 H         1 UNK         0.0680 
     80 H80       -75.6278   27.0998  -69.9946 H         1 UNK         0.0680 
     81 H81       -71.8760   28.5723  -71.1136 H         1 UNK         0.1032 
     82 H82       -73.1695   29.6599  -70.7084 H         1 UNK         0.1032 
     83 H83       -73.5216   30.1363  -73.1747 H         1 UNK         0.0461 
     84 H84       -71.6792   33.0048  -72.2229 H         1 UNK         0.3453 
     85 H85       -73.2254   32.3133  -72.6353 H         1 UNK         0.3453 
     86 H86       -71.9265   27.9175  -73.5982 H         1 UNK         0.2984 
     87 H87       -71.4128   28.4457  -77.0171 H         1 UNK         0.0554 
     88 H88       -69.1308   29.0751  -76.2900 H         1 UNK         0.0847 
     89 H89       -69.1789   27.3854  -76.7653 H         1 UNK         0.0847 
     90 H90       -69.1411   27.8257  -75.0575 H         1 UNK         0.0847 
     91 H91       -72.2123   26.4721  -76.5991 H         1 UNK         0.3141 
     92 H92       -71.4412   23.8734  -75.0928 H         1 UNK         0.0743 
     93 H93       -73.3720   23.2284  -73.6192 H         1 UNK         0.0784 
     94 H94       -72.1524   24.1352  -72.7411 H         1 UNK         0.0784 
     95 H95       -73.6412   24.9270  -73.2345 H         1 UNK         0.0784 
     96 H96       -73.9863   25.2779  -75.8091 H         1 UNK         0.3213 
     97 H97       -73.9473   23.7101  -79.0131 H         1 UNK         0.0855 
     98 H98       -76.0013   23.2773  -76.7811 H         1 UNK         0.0814 
     99 H99       -75.1920   22.0083  -77.6867 H         1 UNK         0.0814 
    100 H100      -76.2961   23.0999  -78.5073 H         1 UNK         0.0814 
    101 H101      -75.8532   25.4964  -77.9848 H         1 UNK         0.3105 
    102 H102      -74.2047   28.4748  -79.1666 H         1 UNK         0.0547 
    103 H103      -76.6771   26.7957  -79.8547 H         1 UNK         0.0837 
    104 H104      -75.3874   27.2359  -80.9646 H         1 UNK         0.0837 
    105 H105      -76.4144   28.4840  -80.2794 H         1 UNK         0.0837 
    106 H106      -76.4435   27.5137  -77.4276 H         1 UNK         0.3020 
    107 H107      -75.2316   29.2451  -74.7011 H         1 UNK         0.1245 
    108 H108      -77.8649   30.2162  -74.9992 H         1 UNK         0.0781 
    109 H109      -77.1329   30.7753  -76.4579 H         1 UNK         0.0781 
    110 H110      -78.1024   32.3939  -73.3694 H         1 UNK         0.0836 
    111 H111      -76.6913   32.6804  -72.3838 H         1 UNK         0.0836 
    112 H112      -77.7517   28.0103  -75.0599 H         1 UNK         0.3022 
    113 H113      -76.5644   24.6698  -75.0159 H         1 UNK         0.0747 
    114 H114      -78.0056   26.0816  -72.7328 H         1 UNK         0.0793 
    115 H115      -77.8321   24.3468  -72.9722 H         1 UNK         0.0793 
    116 H116      -76.4267   25.3259  -72.5776 H         1 UNK         0.0793 
    117 H117      -79.2111   25.5359  -74.8089 H         1 UNK         0.3047 
    118 H118      -80.3476   26.6075  -77.1889 H         1 UNK         0.0822 
    119 H119      -80.9747   25.1509  -79.1375 H         1 UNK         0.0807 
    120 H120      -79.4941   24.2197  -78.9118 H         1 UNK         0.0807 
    121 H121      -79.4108   25.9150  -79.3635 H         1 UNK         0.0807 
    122 H122      -81.6360   25.1795  -76.0732 H         1 UNK         0.2946 
    123 H123      -82.6167   22.7339  -75.7622 H         1 UNK         0.1144 
    124 H124      -82.0354   20.9562  -74.1099 H         1 UNK         0.0793 
    125 H125      -80.3282   21.3823  -74.2331 H         1 UNK         0.0793 
    126 H126      -81.1787   20.7197  -75.6226 H         1 UNK         0.0793 
    127 H127      -81.3374   23.3915  -73.2026 H         1 UNK         0.2896 
@<TRIPOS>BOND
     1    1    2 1    
     2    1   67 1    
     3    1   68 1    
     4    1   69 1    
     5    2    3 2    
     6    2    4 am   BACKBONE|DICT|INTERRES
     7    4    5 1    
     8    4   70 1    
     9    5    6 1    
    10    5   65 1    
    11    5   71 1    
    12    6    7 1    
    13    6   72 1    
    14    6   73 1    
    15    7    8 1    
    16    8    9 1    
    17    8   74 1    
    18    8   75 1    
    19    9   10 ar   
    20    9   14 ar   
    21   10   11 ar   
    22   10   76 1    
    23   11   12 ar   
    24   11   48 1    
    25   12   13 ar   
    26   12   77 1    
    27   13   14 ar   
    28   13   15 1    
    29   14   78 1    
    30   15   16 1    
    31   15   79 1    
    32   15   80 1    
    33   16   17 1    
    34   17   18 1    
    35   17   81 1    
    36   17   82 1    
    37   18   19 1    
    38   18   22 1    
    39   18   83 1    
    40   19   20 am   BACKBONE|DICT|INTERRES
    41   19   21 2    
    42   20   84 1    
    43   20   85 1    
    44   22   23 am   BACKBONE|DICT|INTERRES
    45   22   86 1    
    46   23   24 2    
    47   23   25 1    
    48   25   26 1    
    49   25   27 1    
    50   25   87 1    
    51   26   88 1    
    52   26   89 1    
    53   26   90 1    
    54   27   28 am   BACKBONE|DICT|INTERRES
    55   27   91 1    
    56   28   29 2    
    57   28   30 1    
    58   30   31 1    
    59   30   32 1    
    60   30   92 1    
    61   31   93 1    
    62   31   94 1    
    63   31   95 1    
    64   32   33 am   BACKBONE|DICT|INTERRES
    65   32   96 1    
    66   33   34 2    
    67   33   35 1    
    68   35   36 1    
    69   35   37 1    
    70   35   97 1    
    71   36   98 1    
    72   36   99 1    
    73   36  100 1    
    74   37   38 am   BACKBONE|DICT|INTERRES
    75   37  101 1    
    76   38   39 2    
    77   38   40 1    
    78   40   41 1    
    79   40   42 1    
    80   40  102 1    
    81   41  103 1    
    82   41  104 1    
    83   41  105 1    
    84   42   43 am   BACKBONE|DICT|INTERRES
    85   42  106 1    
    86   43   44 2    
    87   43   45 1    
    88   45   46 1    
    89   45   49 1    
    90   45  107 1    
    91   46   47 1    
    92   46  108 1    
    93   46  109 1    
    94   47   48 1    
    95   48  110 1    
    96   48  111 1    
    97   49   50 am   BACKBONE|DICT|INTERRES
    98   49  112 1    
    99   50   51 2    
   100   50   52 1    
   101   52   53 1    
   102   52   54 1    
   103   52  113 1    
   104   53  114 1    
   105   53  115 1    
   106   53  116 1    
   107   54   55 am   BACKBONE|DICT|INTERRES
   108   54  117 1    
   109   55   56 2    
   110   55   57 1    
   111   57   58 1    
   112   57   59 1    
   113   57  118 1    
   114   58  119 1    
   115   58  120 1    
   116   58  121 1    
   117   59   60 am   BACKBONE|DICT|INTERRES
   118   59  122 1    
   119   60   61 2    
   120   60   62 1    
   121   62   63 1    
   122   62   64 1    
   123   62  123 1    
   124   63  124 1    
   125   63  125 1    
   126   63  126 1    
   127   64   65 am   BACKBONE|DICT|INTERRES
   128   64  127 1    
   129   65   66 2    
@<TRIPOS>SUBSTRUCTURE
     1 UNK         1 GROUP             0       ****    0 ROOT    
