@<TRIPOS>MOLECULE
3R135
127   129    1
SMALL
USER_CHARGES


@<TRIPOS>ATOM
      1 CA        -76.7730   23.5134  -71.8807 C.3       0 UNK        -0.1998 
      2 C         -78.1931   23.7989  -71.4169 C.2       0 UNK         0.4909 
      3 O         -79.0283   22.8958  -71.3956 O.2       0 UNK        -0.5240 
      4 N         -78.4816   25.0561  -71.0603 N.am      1 UNK        -0.4739 
      5 CA        -79.7850   25.5641  -70.6055 C.3       1 UNK         0.0864 
      6 C6        -79.6237   26.7721  -69.6298 C.3       11 UNK        -0.0881 
      7 S7        -78.2908   27.9605  -70.0521 S.3       11 UNK        -0.2682 
      8 C8        -79.1702   29.5121  -70.4302 C.3       11 UNK         0.0289 
      9 C9        -78.8914   29.9321  -71.8636 C.ar      11 UNK        -0.0687 
     10 C10       -79.7133   29.4669  -72.8876 C.ar      11 UNK        -0.0823 
     11 C11       -79.4006   29.7298  -74.2207 C.ar      11 UNK        -0.0830 
     12 C12       -78.2977   30.5303  -74.5288 C.ar      11 UNK        -0.1021 
     13 C13       -77.4637   31.0171  -73.5111 C.ar      11 UNK        -0.0753 
     14 C14       -77.7786   30.7191  -72.1788 C.ar      11 UNK        -0.0933 
     15 C15       -76.1971   31.8267  -73.8032 C.3       11 UNK         0.0166 
     16 S16       -75.4951   31.5731  -75.4724 S.3       11 UNK        -0.2615 
     17 C17       -73.7152   31.8817  -75.2016 C.3       11 UNK        -0.0865 
     18 CA        -72.8895   30.5650  -75.2795 C.3       10 UNK         0.0862 
     19 C         -71.3514   30.7976  -75.4015 C.2       10 UNK         0.5551 
     20 N         -70.5044   29.8980  -74.9125 N.am      10 UNK        -0.7319 
     21 O         -70.9134   31.7938  -75.9723 O.2       10 UNK        -0.5018 
     22 N         -73.2803   29.5863  -74.2532 N.am      10 UNK        -0.4509 
     23 C         -73.0671   29.6767  -72.9353 C.2       10 UNK         0.4899 
     24 O         -72.5719   30.6571  -72.3787 O.2       10 UNK        -0.4839 
     25 CA        -73.4531   28.4506  -72.0878 C.3       9 UNK         0.0222 
     26 CB        -74.8945   28.5960  -71.5727 C.3       9 UNK        -0.1966 
     27 N         -73.3199   27.1603  -72.7767 N.am      9 UNK        -0.4218 
     28 C         -72.2124   26.6651  -73.3490 C.2       9 UNK         0.5020 
     29 O         -71.1372   27.2656  -73.3904 O.2       9 UNK        -0.5274 
     30 CA        -72.3218   25.2543  -73.9608 C.3       8 UNK         0.0270 
     31 CB        -73.3745   24.3636  -73.2698 C.3       8 UNK        -0.1976 
     32 N         -72.6238   25.3129  -75.3901 N.am      8 UNK        -0.4313 
     33 C         -71.7341   25.5414  -76.3655 C.2       8 UNK         0.5041 
     34 O         -70.5284   25.7077  -76.1788 O.2       8 UNK        -0.5577 
     35 CA        -72.2796   25.5674  -77.8018 C.3       7 UNK         0.0284 
     36 CB        -72.3873   24.1412  -78.3674 C.3       7 UNK        -0.1958 
     37 N         -73.5887   26.2188  -77.8645 N.am      7 UNK        -0.4454 
     38 C         -73.7670   27.5350  -78.0425 C.2       7 UNK         0.5089 
     39 O         -72.8497   28.3270  -78.2593 O.2       7 UNK        -0.5125 
     40 CA        -75.2107   28.0678  -77.9669 C.3       6 UNK         0.0408 
     41 CB        -75.8174   28.1811  -79.3737 C.3       6 UNK        -0.1791 
     42 N         -76.0963   27.2599  -77.1250 N.am      6 UNK        -0.4762 
     43 C         -75.9711   27.1292  -75.7970 C.2       6 UNK         0.5007 
     44 O         -75.0789   27.6593  -75.1416 O.2       6 UNK        -0.5032 
     45 CA        -76.9653   26.1957  -75.0793 C.3       5 UNK         0.0783 
     46 C46       -78.2299   26.9475  -74.6118 C.3       11 UNK        -0.0857 
     47 S47       -79.2898   27.5656  -75.9853 S.3       11 UNK        -0.2512 
     48 C48       -80.1775   29.0244  -75.3186 C.3       11 UNK         0.0225 
     49 N         -77.3048   24.9876  -75.8272 N.am      5 UNK        -0.4615 
     50 C         -76.4542   24.1017  -76.3589 C.2       4 UNK         0.5053 
     51 O         -75.2291   24.2288  -76.3181 O.2       4 UNK        -0.5105 
     52 CA        -77.0711   22.8641  -77.0378 C.3       4 UNK         0.0263 
     53 CB        -76.5627   21.5763  -76.3692 C.3       4 UNK        -0.1981 
     54 N         -78.5387   22.8672  -77.0028 N.am      4 UNK        -0.4224 
     55 C         -79.3388   23.5633  -77.8204 C.2       3 UNK         0.4895 
     56 O         -78.9285   24.2477  -78.7574 O.2       3 UNK        -0.5091 
     57 CA        -80.8488   23.5121  -77.5223 C.3       3 UNK         0.0250 
     58 CB        -81.3798   22.0638  -77.4698 C.3       3 UNK        -0.1996 
     59 N         -81.2531   24.2742  -76.3287 N.am      3 UNK        -0.4254 
     60 C         -80.8989   24.0704  -75.0508 C.2       2 UNK         0.5004 
     61 O         -80.1051   23.1999  -74.6840 O.2       2 UNK        -0.5226 
     62 CA        -81.5577   24.9799  -74.0029 C.3       2 UNK         0.0269 
     63 CB        -83.0122   24.5479  -73.7372 C.3       2 UNK        -0.1926 
     64 N         -80.7814   24.9118  -72.7665 N.am      2 UNK        -0.4687 
     65 C         -80.7792   25.8062  -71.7708 C.2       1 UNK         0.5165 
     66 O         -81.5283   26.7829  -71.7536 O.2       1 UNK        -0.5079 
     67 H67       -76.1067   24.3512  -71.6785 H         1 UNK         0.0900 
     68 H68       -76.7615   23.3117  -72.9517 H         1 UNK         0.0900 
     69 H69       -76.3780   22.6385  -71.3649 H         1 UNK         0.0900 
     70 H70       -77.7596   25.7627  -71.0914 H         1 UNK         0.2959 
     71 H71       -80.2561   24.7685  -70.0235 H         1 UNK         0.1079 
     72 H72       -80.5680   27.2925  -69.4632 H         1 UNK         0.0837 
     73 H73       -79.3608   26.3757  -68.6479 H         1 UNK         0.0837 
     74 H74       -80.2437   29.4019  -70.2717 H         1 UNK         0.0685 
     75 H75       -78.8361   30.2882  -69.7402 H         1 UNK         0.0685 
     76 H76       -80.5562   28.8366  -72.6504 H         1 UNK         0.1434 
     77 H77       -78.0643   30.7142  -75.5676 H         1 UNK         0.1329 
     78 H78       -77.1334   31.0674  -71.3839 H         1 UNK         0.1335 
     79 H79       -75.4380   31.5654  -73.0648 H         1 UNK         0.0680 
     80 H80       -76.4120   32.8872  -73.6679 H         1 UNK         0.0680 
     81 H81       -73.5499   32.3933  -74.2525 H         1 UNK         0.1032 
     82 H82       -73.3950   32.5804  -75.9763 H         1 UNK         0.1032 
     83 H83       -73.1510   30.0898  -76.2243 H         1 UNK         0.0461 
     84 H84       -69.5135   30.0517  -75.0060 H         1 UNK         0.3453 
     85 H85       -70.8441   29.0670  -74.4415 H         1 UNK         0.3453 
     86 H86       -73.7770   28.7667  -74.5984 H         1 UNK         0.2984 
     87 H87       -72.7821   28.4260  -71.2271 H         1 UNK         0.0554 
     88 H88       -75.1586   27.7912  -70.8867 H         1 UNK         0.0847 
     89 H89       -75.6173   28.5939  -72.3903 H         1 UNK         0.0847 
     90 H90       -75.0229   29.5334  -71.0301 H         1 UNK         0.0847 
     91 H91       -74.1588   26.6058  -72.8368 H         1 UNK         0.3141 
     92 H92       -71.3496   24.7751  -73.8267 H         1 UNK         0.0743 
     93 H93       -73.2328   24.3466  -72.1881 H         1 UNK         0.0784 
     94 H94       -74.3923   24.6949  -73.4724 H         1 UNK         0.0784 
     95 H95       -73.2969   23.3329  -73.6171 H         1 UNK         0.0784 
     96 H96       -73.5859   25.1339  -75.6595 H         1 UNK         0.3213 
     97 H97       -71.5677   26.1191  -78.4202 H         1 UNK         0.0855 
     98 H98       -71.4159   23.6451  -78.3555 H         1 UNK         0.0814 
     99 H99       -72.7330   24.1505  -79.4012 H         1 UNK         0.0814 
    100 H100      -73.0748   23.5225  -77.7897 H         1 UNK         0.0814 
    101 H101      -74.3942   25.6447  -77.6457 H         1 UNK         0.3105 
    102 H102      -75.1668   29.0697  -77.5344 H         1 UNK         0.0547 
    103 H103      -75.1935   28.8019  -80.0183 H         1 UNK         0.0837 
    104 H104      -75.9126   27.2060  -79.8530 H         1 UNK         0.0837 
    105 H105      -76.8057   28.6401  -79.3437 H         1 UNK         0.0837 
    106 H106      -76.8648   26.7871  -77.5801 H         1 UNK         0.3020 
    107 H107      -76.4501   25.8503  -74.1817 H         1 UNK         0.1245 
    108 H108      -77.9040   27.7518  -73.9556 H         1 UNK         0.0781 
    109 H109      -78.8326   26.2953  -73.9843 H         1 UNK         0.0781 
    110 H110      -81.1511   28.7013  -74.9465 H         1 UNK         0.0836 
    111 H111      -80.3811   29.7209  -76.1331 H         1 UNK         0.0836 
    112 H112      -78.2906   24.7982  -75.9275 H         1 UNK         0.3022 
    113 H113      -76.7412   22.8666  -78.0786 H         1 UNK         0.0747 
    114 H114      -76.9542   20.6896  -76.8681 H         1 UNK         0.0793 
    115 H115      -75.4741   21.5149  -76.4114 H         1 UNK         0.0793 
    116 H116      -76.8519   21.5263  -75.3185 H         1 UNK         0.0793 
    117 H117      -78.9761   22.4360  -76.1941 H         1 UNK         0.3047 
    118 H118      -81.3414   23.9999  -78.3653 H         1 UNK         0.0822 
    119 H119      -82.4679   22.0476  -77.4070 H         1 UNK         0.0807 
    120 H120      -80.9924   21.5070  -76.6163 H         1 UNK         0.0807 
    121 H121      -81.1013   21.5134  -78.3696 H         1 UNK         0.0807 
    122 H122      -81.8885   25.0374  -76.5183 H         1 UNK         0.2946 
    123 H123      -81.5394   26.0070  -74.3745 H         1 UNK         0.1144 
    124 H124      -83.6083   24.5810  -74.6499 H         1 UNK         0.0793 
    125 H125      -83.4980   25.2036  -73.0145 H         1 UNK         0.0793 
    126 H126      -83.0626   23.5292  -73.3504 H         1 UNK         0.0793 
    127 H127      -80.1565   24.1118  -72.7071 H         1 UNK         0.2896 
@<TRIPOS>BOND
     1    1    2 1    
     2    1   67 1    
     3    1   68 1    
     4    1   69 1    
     5    2    3 2    
     6    2    4 am   BACKBONE|DICT|INTERRES
     7    4    5 1    
     8    4   70 1    
     9    5    6 1    
    10    5   65 1    
    11    5   71 1    
    12    6    7 1    
    13    6   72 1    
    14    6   73 1    
    15    7    8 1    
    16    8    9 1    
    17    8   74 1    
    18    8   75 1    
    19    9   10 ar   
    20    9   14 ar   
    21   10   11 ar   
    22   10   76 1    
    23   11   12 ar   
    24   11   48 1    
    25   12   13 ar   
    26   12   77 1    
    27   13   14 ar   
    28   13   15 1    
    29   14   78 1    
    30   15   16 1    
    31   15   79 1    
    32   15   80 1    
    33   16   17 1    
    34   17   18 1    
    35   17   81 1    
    36   17   82 1    
    37   18   19 1    
    38   18   22 1    
    39   18   83 1    
    40   19   20 am   BACKBONE|DICT|INTERRES
    41   19   21 2    
    42   20   84 1    
    43   20   85 1    
    44   22   23 am   BACKBONE|DICT|INTERRES
    45   22   86 1    
    46   23   24 2    
    47   23   25 1    
    48   25   26 1    
    49   25   27 1    
    50   25   87 1    
    51   26   88 1    
    52   26   89 1    
    53   26   90 1    
    54   27   28 am   BACKBONE|DICT|INTERRES
    55   27   91 1    
    56   28   29 2    
    57   28   30 1    
    58   30   31 1    
    59   30   32 1    
    60   30   92 1    
    61   31   93 1    
    62   31   94 1    
    63   31   95 1    
    64   32   33 am   BACKBONE|DICT|INTERRES
    65   32   96 1    
    66   33   34 2    
    67   33   35 1    
    68   35   36 1    
    69   35   37 1    
    70   35   97 1    
    71   36   98 1    
    72   36   99 1    
    73   36  100 1    
    74   37   38 am   BACKBONE|DICT|INTERRES
    75   37  101 1    
    76   38   39 2    
    77   38   40 1    
    78   40   41 1    
    79   40   42 1    
    80   40  102 1    
    81   41  103 1    
    82   41  104 1    
    83   41  105 1    
    84   42   43 am   BACKBONE|DICT|INTERRES
    85   42  106 1    
    86   43   44 2    
    87   43   45 1    
    88   45   46 1    
    89   45   49 1    
    90   45  107 1    
    91   46   47 1    
    92   46  108 1    
    93   46  109 1    
    94   47   48 1    
    95   48  110 1    
    96   48  111 1    
    97   49   50 am   BACKBONE|DICT|INTERRES
    98   49  112 1    
    99   50   51 2    
   100   50   52 1    
   101   52   53 1    
   102   52   54 1    
   103   52  113 1    
   104   53  114 1    
   105   53  115 1    
   106   53  116 1    
   107   54   55 am   BACKBONE|DICT|INTERRES
   108   54  117 1    
   109   55   56 2    
   110   55   57 1    
   111   57   58 1    
   112   57   59 1    
   113   57  118 1    
   114   58  119 1    
   115   58  120 1    
   116   58  121 1    
   117   59   60 am   BACKBONE|DICT|INTERRES
   118   59  122 1    
   119   60   61 2    
   120   60   62 1    
   121   62   63 1    
   122   62   64 1    
   123   62  123 1    
   124   63  124 1    
   125   63  125 1    
   126   63  126 1    
   127   64   65 am   BACKBONE|DICT|INTERRES
   128   64  127 1    
   129   65   66 2    
@<TRIPOS>SUBSTRUCTURE
     1 UNK         1 GROUP             0       ****    0 ROOT    
