@<TRIPOS>MOLECULE
3R135
127   129    1
SMALL
USER_CHARGES


@<TRIPOS>ATOM
      1 CA        -80.2010   31.7297  -75.0068 C.3       0 UNK        -0.1998 
      2 C         -80.1160   30.2577  -74.6355 C.2       0 UNK         0.4909 
      3 O         -79.3652   29.5126  -75.2642 O.2       0 UNK        -0.5240 
      4 N         -80.8955   29.8284  -73.6323 N.am      1 UNK        -0.4739 
      5 CA        -80.8796   28.4744  -73.0546 C.3       1 UNK         0.0864 
      6 C6        -81.7644   28.3762  -71.7826 C.3       11 UNK        -0.0881 
      7 S7        -81.2316   29.5262  -70.4611 S.3       11 UNK        -0.2682 
      8 C8        -80.1785   28.4682  -69.4073 C.3       11 UNK         0.0289 
      9 C9        -79.0510   27.8434  -70.2131 C.ar      11 UNK        -0.0687 
     10 C10       -79.1545   26.5179  -70.6453 C.ar      11 UNK        -0.0823 
     11 C11       -78.2178   25.9871  -71.5350 C.ar      11 UNK        -0.0830 
     12 C12       -77.1500   26.7839  -71.9602 C.ar      11 UNK        -0.1021 
     13 C13       -76.9961   28.0856  -71.4761 C.ar      11 UNK        -0.0753 
     14 C14       -77.9508   28.6136  -70.6028 C.ar      11 UNK        -0.0933 
     15 C15       -75.7987   28.9154  -71.9062 C.3       11 UNK         0.0166 
     16 S16       -76.1645   29.9431  -73.3611 S.3       11 UNK        -0.2615 
     17 C17       -74.4764   30.5256  -73.7421 C.3       11 UNK        -0.0865 
     18 CA        -74.2629   30.9407  -75.2214 C.3       10 UNK         0.0862 
     19 C         -72.7964   31.4217  -75.4368 C.2       10 UNK         0.5551 
     20 N         -71.9668   30.7230  -76.2053 N.am      10 UNK        -0.7319 
     21 O         -72.4068   32.4533  -74.8953 O.2       10 UNK        -0.5018 
     22 N         -74.6931   29.9031  -76.1735 N.am      10 UNK        -0.4509 
     23 C         -74.9406   30.1402  -77.4707 C.2       10 UNK         0.4899 
     24 O         -74.9612   31.2734  -77.9547 O.2       10 UNK        -0.4839 
     25 CA        -75.2120   28.9310  -78.3933 C.3       9 UNK         0.0222 
     26 CB        -74.6951   29.1633  -79.8287 C.3       9 UNK        -0.1966 
     27 N         -74.7279   27.6411  -77.8843 N.am      9 UNK        -0.4218 
     28 C         -73.4721   27.3257  -77.5413 C.2       9 UNK         0.5020 
     29 O         -72.5094   28.0937  -77.6315 O.2       9 UNK        -0.5274 
     30 CA        -73.2674   25.9090  -76.9820 C.3       8 UNK         0.0270 
     31 CB        -72.6465   24.9877  -78.0434 C.3       8 UNK        -0.1976 
     32 N         -72.4326   25.8967  -75.7794 N.am      8 UNK        -0.4313 
     33 C         -72.6737   26.5839  -74.6548 C.2       8 UNK         0.5041 
     34 O         -73.6360   27.3370  -74.4976 O.2       8 UNK        -0.5577 
     35 CA        -71.6877   26.3429  -73.4987 C.3       7 UNK         0.0284 
     36 CB        -71.8982   27.3121  -72.3204 C.3       7 UNK        -0.1958 
     37 N         -71.8256   24.9695  -73.0159 N.am      7 UNK        -0.4454 
     38 C         -71.2203   23.9005  -73.5492 C.2       7 UNK         0.5089 
     39 O         -70.3969   23.9655  -74.4629 O.2       7 UNK        -0.5125 
     40 CA        -71.6477   22.5279  -73.0006 C.3       6 UNK         0.0408 
     41 CB        -70.8620   22.1842  -71.7251 C.3       6 UNK        -0.1791 
     42 N         -73.0891   22.4581  -72.7297 N.am      6 UNK        -0.4762 
     43 C         -74.0376   22.4762  -73.6800 C.2       6 UNK         0.5007 
     44 O         -73.7729   22.4632  -74.8854 O.2       6 UNK        -0.5032 
     45 CA        -75.5112   22.4609  -73.2007 C.3       5 UNK         0.0783 
     46 C46       -75.7789   23.4623  -72.0347 C.3       11 UNK        -0.0857 
     47 S47       -77.4425   23.2968  -71.2928 S.3       11 UNK        -0.2512 
     48 C48       -78.4307   24.5950  -72.1114 C.3       11 UNK         0.0225 
     49 N         -76.4505   22.6039  -74.3253 N.am      5 UNK        -0.4615 
     50 C         -76.6543   23.6967  -75.0768 C.2       4 UNK         0.5053 
     51 O         -76.0659   24.7643  -74.9018 O.2       4 UNK        -0.5105 
     52 CA        -77.7352   23.5824  -76.1734 C.3       4 UNK         0.0263 
     53 CB        -78.8881   22.6312  -75.7888 C.3       4 UNK        -0.1981 
     54 N         -78.3172   24.8846  -76.5058 N.am      4 UNK        -0.4224 
     55 C         -77.8079   25.7677  -77.3731 C.2       3 UNK         0.4895 
     56 O         -76.7437   25.5967  -77.9717 O.2       3 UNK        -0.5091 
     57 CA        -78.5882   27.0763  -77.6209 C.3       3 UNK         0.0250 
     58 CB        -78.7318   27.3775  -79.1288 C.3       3 UNK        -0.1996 
     59 N         -79.8876   27.1948  -76.9442 N.am      3 UNK        -0.4254 
     60 C         -81.0011   26.4648  -77.1274 C.2       2 UNK         0.5004 
     61 O         -81.0716   25.5163  -77.9095 O.2       2 UNK        -0.5226 
     62 CA        -82.2513   26.8611  -76.3080 C.3       2 UNK         0.0269 
     63 CB        -83.1155   25.6404  -75.9235 C.3       2 UNK        -0.1926 
     64 N         -81.9555   27.6919  -75.1304 N.am      2 UNK        -0.4687 
     65 C         -81.2221   27.3503  -74.0585 C.2       1 UNK         0.5165 
     66 O         -80.7771   26.2177  -73.8712 O.2       1 UNK        -0.5079 
     67 H67       -80.9088   32.2694  -74.3780 H         1 UNK         0.0900 
     68 H68       -79.2230   32.1975  -74.8963 H         1 UNK         0.0900 
     69 H69       -80.5154   31.8376  -76.0445 H         1 UNK         0.0900 
     70 H70       -81.4892   30.4901  -73.1520 H         1 UNK         0.2959 
     71 H71       -79.8433   28.2889  -72.7701 H         1 UNK         0.1079 
     72 H72       -81.7710   27.3599  -71.3852 H         1 UNK         0.0837 
     73 H73       -82.8032   28.6021  -72.0299 H         1 UNK         0.0837 
     74 H74       -79.7629   29.0693  -68.5973 H         1 UNK         0.0685 
     75 H75       -80.7937   27.6992  -68.9373 H         1 UNK         0.0685 
     76 H76       -80.0060   25.9214  -70.3476 H         1 UNK         0.1434 
     77 H77       -76.4445   26.4087  -72.6875 H         1 UNK         0.1329 
     78 H78       -77.8631   29.6373  -70.2651 H         1 UNK         0.1335 
     79 H79       -75.4687   29.5537  -71.0852 H         1 UNK         0.0680 
     80 H80       -74.9654   28.2507  -72.1357 H         1 UNK         0.0680 
     81 H81       -73.7632   29.7442  -73.4768 H         1 UNK         0.1032 
     82 H82       -74.2587   31.3655  -73.0794 H         1 UNK         0.1032 
     83 H83       -74.8944   31.8143  -75.3949 H         1 UNK         0.0461 
     84 H84       -72.2707   29.8655  -76.6553 H         1 UNK         0.3453 
     85 H85       -71.0235   31.0503  -76.3370 H         1 UNK         0.3453 
     86 H86       -74.6637   28.9507  -75.8298 H         1 UNK         0.2984 
     87 H87       -76.2956   28.8497  -78.4497 H         1 UNK         0.0554 
     88 H88       -75.1596   30.0415  -80.2788 H         1 UNK         0.0847 
     89 H89       -74.9224   28.3150  -80.4743 H         1 UNK         0.0847 
     90 H90       -73.6161   29.3205  -79.8480 H         1 UNK         0.0847 
     91 H91       -75.4338   26.9105  -77.8006 H         1 UNK         0.3141 
     92 H92       -74.2385   25.4991  -76.6986 H         1 UNK         0.0743 
     93 H93       -71.6548   25.3293  -78.3429 H         1 UNK         0.0784 
     94 H94       -72.5560   23.9651  -77.6756 H         1 UNK         0.0784 
     95 H95       -73.2668   24.9549  -78.9402 H         1 UNK         0.0784 
     96 H96       -71.6272   25.2836  -75.7892 H         1 UNK         0.3213 
     97 H97       -70.6777   26.5013  -73.8838 H         1 UNK         0.0855 
     98 H98       -72.8773   27.1827  -71.8593 H         1 UNK         0.0814 
     99 H99       -71.8237   28.3489  -72.6506 H         1 UNK         0.0814 
    100 H100      -71.1435   27.1643  -71.5480 H         1 UNK         0.0814 
    101 H101      -72.5228   24.8122  -72.3036 H         1 UNK         0.3105 
    102 H102      -71.4069   21.7778  -73.7571 H         1 UNK         0.0547 
    103 H103      -69.7874   22.2129  -71.9112 H         1 UNK         0.0837 
    104 H104      -71.0702   22.8855  -70.9161 H         1 UNK         0.0837 
    105 H105      -71.0996   21.1812  -71.3704 H         1 UNK         0.0837 
    106 H106      -73.3655   22.4174  -71.7589 H         1 UNK         0.3020 
    107 H107      -75.6722   21.4543  -72.8110 H         1 UNK         0.1245 
    108 H108      -75.5986   24.4853  -72.3532 H         1 UNK         0.0781 
    109 H109      -75.0812   23.2922  -71.2142 H         1 UNK         0.0781 
    110 H110      -79.4826   24.3196  -72.0198 H         1 UNK         0.0836 
    111 H111      -78.2442   24.6208  -73.1797 H         1 UNK         0.0836 
    112 H112      -76.9715   21.7704  -74.5548 H         1 UNK         0.3022 
    113 H113      -77.2465   23.1801  -77.0632 H         1 UNK         0.0747 
    114 H114      -79.6701   22.6351  -76.5489 H         1 UNK         0.0793 
    115 H115      -78.5481   21.5991  -75.6989 H         1 UNK         0.0793 
    116 H116      -79.3486   22.9155  -74.8413 H         1 UNK         0.0793 
    117 H117      -79.1707   25.1345  -76.0274 H         1 UNK         0.3047 
    118 H118      -77.9741   27.8628  -77.1811 H         1 UNK         0.0822 
    119 H119      -79.1893   28.3527  -79.2952 H         1 UNK         0.0807 
    120 H120      -79.3424   26.6294  -79.6346 H         1 UNK         0.0807 
    121 H121      -77.7633   27.3873  -79.6296 H         1 UNK         0.0807 
    122 H122      -79.9230   27.9476  -76.2601 H         1 UNK         0.2946 
    123 H123      -82.8486   27.4854  -76.9747 H         1 UNK         0.1144 
    124 H124      -83.4773   25.1218  -76.8122 H         1 UNK         0.0793 
    125 H125      -83.9911   25.9390  -75.3472 H         1 UNK         0.0793 
    126 H126      -82.5559   24.9143  -75.3332 H         1 UNK         0.0793 
    127 H127      -82.2584   28.6549  -75.1879 H         1 UNK         0.2896 
@<TRIPOS>BOND
     1    1    2 1    
     2    1   67 1    
     3    1   68 1    
     4    1   69 1    
     5    2    3 2    
     6    2    4 am   BACKBONE|DICT|INTERRES
     7    4    5 1    
     8    4   70 1    
     9    5    6 1    
    10    5   65 1    
    11    5   71 1    
    12    6    7 1    
    13    6   72 1    
    14    6   73 1    
    15    7    8 1    
    16    8    9 1    
    17    8   74 1    
    18    8   75 1    
    19    9   10 ar   
    20    9   14 ar   
    21   10   11 ar   
    22   10   76 1    
    23   11   12 ar   
    24   11   48 1    
    25   12   13 ar   
    26   12   77 1    
    27   13   14 ar   
    28   13   15 1    
    29   14   78 1    
    30   15   16 1    
    31   15   79 1    
    32   15   80 1    
    33   16   17 1    
    34   17   18 1    
    35   17   81 1    
    36   17   82 1    
    37   18   19 1    
    38   18   22 1    
    39   18   83 1    
    40   19   20 am   BACKBONE|DICT|INTERRES
    41   19   21 2    
    42   20   84 1    
    43   20   85 1    
    44   22   23 am   BACKBONE|DICT|INTERRES
    45   22   86 1    
    46   23   24 2    
    47   23   25 1    
    48   25   26 1    
    49   25   27 1    
    50   25   87 1    
    51   26   88 1    
    52   26   89 1    
    53   26   90 1    
    54   27   28 am   BACKBONE|DICT|INTERRES
    55   27   91 1    
    56   28   29 2    
    57   28   30 1    
    58   30   31 1    
    59   30   32 1    
    60   30   92 1    
    61   31   93 1    
    62   31   94 1    
    63   31   95 1    
    64   32   33 am   BACKBONE|DICT|INTERRES
    65   32   96 1    
    66   33   34 2    
    67   33   35 1    
    68   35   36 1    
    69   35   37 1    
    70   35   97 1    
    71   36   98 1    
    72   36   99 1    
    73   36  100 1    
    74   37   38 am   BACKBONE|DICT|INTERRES
    75   37  101 1    
    76   38   39 2    
    77   38   40 1    
    78   40   41 1    
    79   40   42 1    
    80   40  102 1    
    81   41  103 1    
    82   41  104 1    
    83   41  105 1    
    84   42   43 am   BACKBONE|DICT|INTERRES
    85   42  106 1    
    86   43   44 2    
    87   43   45 1    
    88   45   46 1    
    89   45   49 1    
    90   45  107 1    
    91   46   47 1    
    92   46  108 1    
    93   46  109 1    
    94   47   48 1    
    95   48  110 1    
    96   48  111 1    
    97   49   50 am   BACKBONE|DICT|INTERRES
    98   49  112 1    
    99   50   51 2    
   100   50   52 1    
   101   52   53 1    
   102   52   54 1    
   103   52  113 1    
   104   53  114 1    
   105   53  115 1    
   106   53  116 1    
   107   54   55 am   BACKBONE|DICT|INTERRES
   108   54  117 1    
   109   55   56 2    
   110   55   57 1    
   111   57   58 1    
   112   57   59 1    
   113   57  118 1    
   114   58  119 1    
   115   58  120 1    
   116   58  121 1    
   117   59   60 am   BACKBONE|DICT|INTERRES
   118   59  122 1    
   119   60   61 2    
   120   60   62 1    
   121   62   63 1    
   122   62   64 1    
   123   62  123 1    
   124   63  124 1    
   125   63  125 1    
   126   63  126 1    
   127   64   65 am   BACKBONE|DICT|INTERRES
   128   64  127 1    
   129   65   66 2    
@<TRIPOS>SUBSTRUCTURE
     1 UNK         1 GROUP             0       ****    0 ROOT    
