@<TRIPOS>MOLECULE
3R135
127   129    1
SMALL
USER_CHARGES


@<TRIPOS>ATOM
      1 CA        -82.3758   29.3905  -76.4793 C.3       0 UNK        -0.1998 
      2 C         -81.4750   28.3576  -75.8206 C.2       0 UNK         0.4909 
      3 O         -80.7172   27.6793  -76.5143 O.2       0 UNK        -0.5240 
      4 N         -81.5656   28.2248  -74.4887 N.am      1 UNK        -0.4739 
      5 CA        -80.7507   27.3433  -73.6345 C.3       1 UNK         0.0864 
      6 C6        -81.1559   27.4455  -72.1411 C.3       11 UNK        -0.0881 
      7 S7        -81.2200   29.1657  -71.5286 S.3       11 UNK        -0.2682 
      8 C8        -80.1136   29.1136  -70.0835 C.3       11 UNK         0.0289 
      9 C9        -78.6486   29.0218  -70.4833 C.ar      11 UNK        -0.0687 
     10 C10       -77.9147   27.8585  -70.2233 C.ar      11 UNK        -0.0823 
     11 C11       -76.5649   27.7736  -70.5871 C.ar      11 UNK        -0.0830 
     12 C12       -75.9556   28.8772  -71.1862 C.ar      11 UNK        -0.1021 
     13 C13       -76.6684   30.0495  -71.4357 C.ar      11 UNK        -0.0753 
     14 C14       -78.0195   30.1161  -71.0877 C.ar      11 UNK        -0.0933 
     15 C15       -75.9547   31.2386  -72.0579 C.3       11 UNK         0.0166 
     16 S16       -75.8042   31.0436  -73.8592 S.3       11 UNK        -0.2615 
     17 C17       -74.4111   32.1603  -74.2367 C.3       11 UNK        -0.0865 
     18 CA        -73.2133   31.4460  -74.9236 C.3       10 UNK         0.0862 
     19 C         -72.1426   32.4974  -75.3439 C.2       10 UNK         0.5551 
     20 N         -70.9653   32.5311  -74.7310 N.am      10 UNK        -0.7319 
     21 O         -72.3904   33.2996  -76.2409 O.2       10 UNK        -0.5018 
     22 N         -72.7005   30.3079  -74.1333 N.am      10 UNK        -0.4509 
     23 C         -71.8447   29.3817  -74.5931 C.2       10 UNK         0.4899 
     24 O         -71.3804   29.3876  -75.7337 O.2       10 UNK        -0.4839 
     25 CA        -71.3897   28.2751  -73.6274 C.3       9 UNK         0.0222 
     26 CB        -71.8993   28.4212  -72.1817 C.3       9 UNK        -0.1966 
     27 N         -71.8117   26.9781  -74.1532 N.am      9 UNK        -0.4218 
     28 C         -70.9960   25.9530  -74.4287 C.2       9 UNK         0.5020 
     29 O         -69.7773   25.9706  -74.2462 O.2       9 UNK        -0.5274 
     30 CA        -71.6447   24.6787  -74.9973 C.3       8 UNK         0.0270 
     31 CB        -72.1819   23.7941  -73.8601 C.3       8 UNK        -0.1976 
     32 N         -72.7151   24.9504  -75.9603 N.am      8 UNK        -0.4313 
     33 C         -72.5270   25.4862  -77.1757 C.2       8 UNK         0.5041 
     34 O         -71.4208   25.7745  -77.6343 O.2       8 UNK        -0.5577 
     35 CA        -73.7801   25.7371  -78.0313 C.3       7 UNK         0.0284 
     36 CB        -74.1905   24.4600  -78.7822 C.3       7 UNK        -0.1958 
     37 N         -74.9077   26.2275  -77.2376 N.am      7 UNK        -0.4454 
     38 C         -74.9847   27.4559  -76.7086 C.2       7 UNK         0.5089 
     39 O         -74.1648   28.3448  -76.9289 O.2       7 UNK        -0.5125 
     40 CA        -76.1590   27.7417  -75.7574 C.3       6 UNK         0.0408 
     41 CB        -77.3749   28.2857  -76.5209 C.3       6 UNK        -0.1791 
     42 N         -76.5545   26.5812  -74.9592 N.am      6 UNK        -0.4762 
     43 C         -75.7979   26.0254  -74.0011 C.2       6 UNK         0.5007 
     44 O         -74.6852   26.4438  -73.6776 O.2       6 UNK        -0.5032 
     45 CA        -76.3607   24.7459  -73.3490 C.3       5 UNK         0.0783 
     46 C46       -77.3306   25.0692  -72.1816 C.3       11 UNK        -0.0857 
     47 S47       -76.5831   24.9343  -70.5257 S.3       11 UNK        -0.2512 
     48 C48       -75.7201   26.5288  -70.3199 C.3       11 UNK         0.0225 
     49 N         -76.9902   23.8830  -74.3562 N.am      5 UNK        -0.4615 
     50 C         -76.3063   23.2202  -75.2987 C.2       4 UNK         0.5053 
     51 O         -75.0828   23.2793  -75.4168 O.2       4 UNK        -0.5105 
     52 CA        -77.1146   22.3715  -76.2923 C.3       4 UNK         0.0263 
     53 CB        -77.5099   21.0284  -75.6590 C.3       4 UNK        -0.1981 
     54 N         -78.3117   23.0370  -76.8092 N.am      4 UNK        -0.4224 
     55 C         -78.3339   24.1742  -77.5152 C.2       3 UNK         0.4895 
     56 O         -77.3305   24.8409  -77.7580 O.2       3 UNK        -0.5091 
     57 CA        -79.6977   24.6621  -78.0362 C.3       3 UNK         0.0250 
     58 CB        -80.1459   23.8655  -79.2769 C.3       3 UNK        -0.1996 
     59 N         -80.7417   24.7131  -77.0058 N.am      3 UNK        -0.4254 
     60 C         -81.2995   23.7039  -76.3170 C.2       2 UNK         0.5004 
     61 O         -81.0741   22.5145  -76.5499 O.2       2 UNK        -0.5226 
     62 CA        -82.2220   24.0847  -75.1381 C.3       2 UNK         0.0269 
     63 CB        -82.2045   23.0207  -74.0196 C.3       2 UNK        -0.1926 
     64 N         -81.9484   25.4150  -74.5731 N.am      2 UNK        -0.4687 
     65 C         -80.7813   25.8667  -74.0823 C.2       1 UNK         0.5165 
     66 O         -79.7527   25.1927  -74.0290 O.2       1 UNK        -0.5079 
     67 H67       -82.9946   29.9159  -75.7522 H         1 UNK         0.0900 
     68 H68       -81.7731   30.1282  -77.0081 H         1 UNK         0.0900 
     69 H69       -83.0342   28.9077  -77.2009 H         1 UNK         0.0900 
     70 H70       -82.2014   28.8243  -73.9810 H         1 UNK         0.2959 
     71 H71       -79.7162   27.6814  -73.7295 H         1 UNK         0.1079 
     72 H72       -80.4647   26.8665  -71.5254 H         1 UNK         0.0837 
     73 H73       -82.1421   27.0055  -71.9798 H         1 UNK         0.0837 
     74 H74       -80.2633   30.0209  -69.4966 H         1 UNK         0.0685 
     75 H75       -80.3998   28.2828  -69.4364 H         1 UNK         0.0685 
     76 H76       -78.3948   27.0180  -69.7415 H         1 UNK         0.1434 
     77 H77       -74.9141   28.8324  -71.4577 H         1 UNK         0.1329 
     78 H78       -78.5822   31.0193  -71.2806 H         1 UNK         0.1335 
     79 H79       -76.4835   32.1673  -71.8382 H         1 UNK         0.0680 
     80 H80       -74.9645   31.3317  -71.6091 H         1 UNK         0.0680 
     81 H81       -74.8019   32.9470  -74.8854 H         1 UNK         0.1032 
     82 H82       -74.0794   32.6669  -73.3286 H         1 UNK         0.1032 
     83 H83       -73.5888   31.0209  -75.8567 H         1 UNK         0.0461 
     84 H84       -70.7533   31.8752  -73.9969 H         1 UNK         0.3453 
     85 H85       -70.2802   33.2146  -75.0123 H         1 UNK         0.3453 
     86 H86       -73.0412   30.2341  -73.1875 H         1 UNK         0.2984 
     87 H87       -70.3003   28.3398  -73.5980 H         1 UNK         0.0554 
     88 H88       -71.4323   27.6806  -71.5323 H         1 UNK         0.0847 
     89 H89       -72.9734   28.2652  -72.1253 H         1 UNK         0.0847 
     90 H90       -71.6660   29.4010  -71.7629 H         1 UNK         0.0847 
     91 H91       -72.8091   26.8605  -74.3081 H         1 UNK         0.3141 
     92 H92       -70.8659   24.1183  -75.5190 H         1 UNK         0.0743 
     93 H93       -71.3926   23.5544  -73.1463 H         1 UNK         0.0784 
     94 H94       -72.9819   24.2872  -73.3074 H         1 UNK         0.0784 
     95 H95       -72.5706   22.8498  -74.2416 H         1 UNK         0.0784 
     96 H96       -73.6518   24.6586  -75.6971 H         1 UNK         0.3213 
     97 H97       -73.5293   26.4995  -78.7722 H         1 UNK         0.0855 
     98 H98       -74.4756   23.6609  -78.0973 H         1 UNK         0.0814 
     99 H99       -73.3694   24.0873  -79.3959 H         1 UNK         0.0814 
    100 H100      -75.0342   24.6458  -79.4472 H         1 UNK         0.0814 
    101 H101      -75.6933   25.5944  -77.1123 H         1 UNK         0.3105 
    102 H102      -75.8234   28.5104  -75.0623 H         1 UNK         0.0547 
    103 H103      -77.1015   29.1561  -77.1186 H         1 UNK         0.0837 
    104 H104      -77.7970   27.5425  -77.1981 H         1 UNK         0.0837 
    105 H105      -78.1613   28.6013  -75.8354 H         1 UNK         0.0837 
    106 H106      -77.4391   26.1475  -75.1837 H         1 UNK         0.3020 
    107 H107      -75.5076   24.1920  -72.9501 H         1 UNK         0.1245 
    108 H108      -78.1468   24.3455  -72.1682 H         1 UNK         0.0781 
    109 H109      -77.8213   26.0356  -72.3059 H         1 UNK         0.0781 
    110 H110      -74.8435   26.5202  -70.9693 H         1 UNK         0.0836 
    111 H111      -75.3389   26.5848  -69.2996 H         1 UNK         0.0836 
    112 H112      -78.0025   23.8462  -74.3496 H         1 UNK         0.3022 
    113 H113      -76.4655   22.1656  -77.1459 H         1 UNK         0.0747 
    114 H114      -77.9854   20.3718  -76.3879 H         1 UNK         0.0793 
    115 H115      -76.6337   20.5038  -75.2750 H         1 UNK         0.0793 
    116 H116      -78.2027   21.1618  -74.8270 H         1 UNK         0.0793 
    117 H117      -79.2074   22.5812  -76.6494 H         1 UNK         0.3047 
    118 H118      -79.5549   25.6977  -78.3501 H         1 UNK         0.0822 
    119 H119      -81.0786   24.2575  -79.6824 H         1 UNK         0.0807 
    120 H120      -80.2940   22.8078  -79.0578 H         1 UNK         0.0807 
    121 H121      -79.3970   23.9285  -80.0674 H         1 UNK         0.0807 
    122 H122      -80.9591   25.6565  -76.6977 H         1 UNK         0.2946 
    123 H123      -83.2321   24.1207  -75.5495 H         1 UNK         0.1144 
    124 H124      -81.2037   22.8829  -73.6088 H         1 UNK         0.0793 
    125 H125      -82.5391   22.0518  -74.3923 H         1 UNK         0.0793 
    126 H126      -82.8683   23.2955  -73.2000 H         1 UNK         0.0793 
    127 H127      -82.7181   26.0698  -74.6028 H         1 UNK         0.2896 
@<TRIPOS>BOND
     1    1    2 1    
     2    1   67 1    
     3    1   68 1    
     4    1   69 1    
     5    2    3 2    
     6    2    4 am   BACKBONE|DICT|INTERRES
     7    4    5 1    
     8    4   70 1    
     9    5    6 1    
    10    5   65 1    
    11    5   71 1    
    12    6    7 1    
    13    6   72 1    
    14    6   73 1    
    15    7    8 1    
    16    8    9 1    
    17    8   74 1    
    18    8   75 1    
    19    9   10 ar   
    20    9   14 ar   
    21   10   11 ar   
    22   10   76 1    
    23   11   12 ar   
    24   11   48 1    
    25   12   13 ar   
    26   12   77 1    
    27   13   14 ar   
    28   13   15 1    
    29   14   78 1    
    30   15   16 1    
    31   15   79 1    
    32   15   80 1    
    33   16   17 1    
    34   17   18 1    
    35   17   81 1    
    36   17   82 1    
    37   18   19 1    
    38   18   22 1    
    39   18   83 1    
    40   19   20 am   BACKBONE|DICT|INTERRES
    41   19   21 2    
    42   20   84 1    
    43   20   85 1    
    44   22   23 am   BACKBONE|DICT|INTERRES
    45   22   86 1    
    46   23   24 2    
    47   23   25 1    
    48   25   26 1    
    49   25   27 1    
    50   25   87 1    
    51   26   88 1    
    52   26   89 1    
    53   26   90 1    
    54   27   28 am   BACKBONE|DICT|INTERRES
    55   27   91 1    
    56   28   29 2    
    57   28   30 1    
    58   30   31 1    
    59   30   32 1    
    60   30   92 1    
    61   31   93 1    
    62   31   94 1    
    63   31   95 1    
    64   32   33 am   BACKBONE|DICT|INTERRES
    65   32   96 1    
    66   33   34 2    
    67   33   35 1    
    68   35   36 1    
    69   35   37 1    
    70   35   97 1    
    71   36   98 1    
    72   36   99 1    
    73   36  100 1    
    74   37   38 am   BACKBONE|DICT|INTERRES
    75   37  101 1    
    76   38   39 2    
    77   38   40 1    
    78   40   41 1    
    79   40   42 1    
    80   40  102 1    
    81   41  103 1    
    82   41  104 1    
    83   41  105 1    
    84   42   43 am   BACKBONE|DICT|INTERRES
    85   42  106 1    
    86   43   44 2    
    87   43   45 1    
    88   45   46 1    
    89   45   49 1    
    90   45  107 1    
    91   46   47 1    
    92   46  108 1    
    93   46  109 1    
    94   47   48 1    
    95   48  110 1    
    96   48  111 1    
    97   49   50 am   BACKBONE|DICT|INTERRES
    98   49  112 1    
    99   50   51 2    
   100   50   52 1    
   101   52   53 1    
   102   52   54 1    
   103   52  113 1    
   104   53  114 1    
   105   53  115 1    
   106   53  116 1    
   107   54   55 am   BACKBONE|DICT|INTERRES
   108   54  117 1    
   109   55   56 2    
   110   55   57 1    
   111   57   58 1    
   112   57   59 1    
   113   57  118 1    
   114   58  119 1    
   115   58  120 1    
   116   58  121 1    
   117   59   60 am   BACKBONE|DICT|INTERRES
   118   59  122 1    
   119   60   61 2    
   120   60   62 1    
   121   62   63 1    
   122   62   64 1    
   123   62  123 1    
   124   63  124 1    
   125   63  125 1    
   126   63  126 1    
   127   64   65 am   BACKBONE|DICT|INTERRES
   128   64  127 1    
   129   65   66 2    
@<TRIPOS>SUBSTRUCTURE
     1 UNK         1 GROUP             0       ****    0 ROOT    
