@<TRIPOS>MOLECULE
3R135
127   129    1
SMALL
USER_CHARGES


@<TRIPOS>ATOM
      1 CA        -80.1882   22.5017  -71.3956 C.3       0 UNK        -0.1998 
      2 C         -80.8524   23.6513  -72.1367 C.2       0 UNK         0.4909 
      3 O         -81.5179   23.4238  -73.1477 O.2       0 UNK        -0.5240 
      4 N         -80.6708   24.8854  -71.6471 N.am      1 UNK        -0.4739 
      5 CA        -81.1651   26.1297  -72.2499 C.3       1 UNK         0.0864 
      6 C6        -80.8962   27.3999  -71.3778 C.3       11 UNK        -0.0881 
      7 S7        -79.6556   27.2569  -70.0330 S.3       11 UNK        -0.2682 
      8 C8        -78.0580   27.3990  -70.8950 C.3       11 UNK         0.0289 
      9 C9        -77.7646   28.8068  -71.3902 C.ar      11 UNK        -0.0687 
     10 C10       -78.0944   29.1650  -72.6966 C.ar      11 UNK        -0.0823 
     11 C11       -77.7887   30.4320  -73.1960 C.ar      11 UNK        -0.0830 
     12 C12       -77.1450   31.3543  -72.3639 C.ar      11 UNK        -0.1021 
     13 C13       -76.8224   31.0162  -71.0445 C.ar      11 UNK        -0.0753 
     14 C14       -77.1345   29.7396  -70.5634 C.ar      11 UNK        -0.0933 
     15 C15       -76.1705   32.0420  -70.1273 C.3       11 UNK         0.0166 
     16 S16       -74.4067   32.2979  -70.4998 S.3       11 UNK        -0.2615 
     17 C17       -73.6764   30.6904  -70.0278 C.3       11 UNK        -0.0865 
     18 CA        -72.6900   30.1440  -71.0930 C.3       10 UNK         0.0862 
     19 C         -72.0223   28.8178  -70.6173 C.2       10 UNK         0.5551 
     20 N         -72.1032   27.7157  -71.3555 N.am      10 UNK        -0.7319 
     21 O         -71.4090   28.7917  -69.5530 O.2       10 UNK        -0.5018 
     22 N         -73.3014   30.0660  -72.4298 N.am      10 UNK        -0.4509 
     23 C         -72.6052   30.0875  -73.5701 C.2       10 UNK         0.4899 
     24 O         -71.3892   30.2821  -73.6381 O.2       10 UNK        -0.4839 
     25 CA        -73.3980   29.8253  -74.8588 C.3       9 UNK         0.0222 
     26 CB        -73.5356   31.1114  -75.6887 C.3       9 UNK        -0.1966 
     27 N         -72.7465   28.7880  -75.6620 N.am      9 UNK        -0.4218 
     28 C         -72.5965   27.5151  -75.2731 C.2       9 UNK         0.5020 
     29 O         -73.0794   27.0551  -74.2355 O.2       9 UNK        -0.5274 
     30 CA        -71.7328   26.6181  -76.1657 C.3       8 UNK         0.0270 
     31 CB        -70.5067   26.0951  -75.3901 C.3       8 UNK        -0.1976 
     32 N         -72.5448   25.5116  -76.6647 N.am      8 UNK        -0.4313 
     33 C         -72.2265   24.7309  -77.7057 C.2       8 UNK         0.5041 
     34 O         -71.1767   24.8302  -78.3430 O.2       8 UNK        -0.5577 
     35 CA        -73.2636   23.6813  -78.1340 C.3       7 UNK         0.0284 
     36 CB        -73.3817   22.5444  -77.1040 C.3       7 UNK        -0.1958 
     37 N         -74.5675   24.3075  -78.3518 N.am      7 UNK        -0.4454 
     38 C         -74.9327   24.9070  -79.4944 C.2       7 UNK         0.5089 
     39 O         -74.2532   24.8920  -80.5216 O.2       7 UNK        -0.5125 
     40 CA        -76.2782   25.6585  -79.5071 C.3       6 UNK         0.0408 
     41 CB        -77.3910   24.7572  -80.0643 C.3       6 UNK        -0.1791 
     42 N         -76.6870   26.1690  -78.1975 N.am      6 UNK        -0.4762 
     43 C         -76.0269   27.0947  -77.4849 C.2       6 UNK         0.5007 
     44 O         -75.0150   27.6738  -77.8799 O.2       6 UNK        -0.5032 
     45 CA        -76.5782   27.3833  -76.0729 C.3       5 UNK         0.0783 
     46 C46       -77.7005   28.4550  -76.1398 C.3       11 UNK        -0.0857 
     47 S47       -77.0652   30.1462  -75.8778 S.3       11 UNK        -0.2512 
     48 C48       -78.1955   30.8153  -74.6136 C.3       11 UNK         0.0225 
     49 N         -77.0079   26.1608  -75.3745 N.am      5 UNK        -0.4615 
     50 C         -76.2393   25.0838  -75.1469 C.2       4 UNK         0.5053 
     51 O         -75.0598   25.0055  -75.4822 O.2       4 UNK        -0.5105 
     52 CA        -76.9071   23.8545  -74.5129 C.3       4 UNK         0.0263 
     53 CB        -76.9483   23.9531  -72.9811 C.3       4 UNK        -0.1981 
     54 N         -78.2542   23.6501  -75.0431 N.am      4 UNK        -0.4224 
     55 C         -78.5111   23.0964  -76.2366 C.2       3 UNK         0.4895 
     56 O         -77.6486   22.6017  -76.9625 O.2       3 UNK        -0.5091 
     57 CA        -79.9715   23.1241  -76.7185 C.3       3 UNK         0.0250 
     58 CB        -80.7187   21.8632  -76.2564 C.3       3 UNK        -0.1996 
     59 N         -80.6954   24.3192  -76.2749 N.am      3 UNK        -0.4254 
     60 C         -80.4370   25.5595  -76.7164 C.2       2 UNK         0.5004 
     61 O         -79.5794   25.8188  -77.5609 O.2       2 UNK        -0.5226 
     62 CA        -81.2317   26.7141  -76.0773 C.3       2 UNK         0.0269 
     63 CB        -82.5350   26.9584  -76.8538 C.3       2 UNK        -0.1926 
     64 N         -81.5402   26.5310  -74.6522 N.am      2 UNK        -0.4687 
     65 C         -80.6365   26.2980  -73.6895 C.2       1 UNK         0.5165 
     66 O         -79.4289   26.1922  -73.9071 O.2       1 UNK        -0.5079 
     67 H67       -80.9451   21.8415  -70.9733 H         1 UNK         0.0900 
     68 H68       -79.5732   21.9200  -72.0817 H         1 UNK         0.0900 
     69 H69       -79.5510   22.8541  -70.5847 H         1 UNK         0.0900 
     70 H70       -80.1091   25.0196  -70.8176 H         1 UNK         0.2959 
     71 H71       -82.2485   26.0111  -72.3242 H         1 UNK         0.1079 
     72 H72       -81.8297   27.6648  -70.8790 H         1 UNK         0.0837 
     73 H73       -80.6655   28.2784  -71.9827 H         1 UNK         0.0837 
     74 H74       -77.2665   27.0820  -70.2143 H         1 UNK         0.0685 
     75 H75       -78.0332   26.6988  -71.7271 H         1 UNK         0.0685 
     76 H76       -78.5987   28.4477  -73.3185 H         1 UNK         0.1434 
     77 H77       -76.9086   32.3427  -72.7342 H         1 UNK         0.1329 
     78 H78       -76.8894   29.4697  -69.5452 H         1 UNK         0.1335 
     79 H79       -76.6908   32.9954  -70.2307 H         1 UNK         0.0680 
     80 H80       -76.2777   31.7514  -69.0809 H         1 UNK         0.0680 
     81 H81       -73.1639   30.8315  -69.0742 H         1 UNK         0.1032 
     82 H82       -74.4615   29.9594  -69.8355 H         1 UNK         0.1032 
     83 H83       -71.8741   30.8669  -71.1547 H         1 UNK         0.0461 
     84 H84       -72.5802   27.7116  -72.2490 H         1 UNK         0.3453 
     85 H85       -71.6604   26.8735  -71.0252 H         1 UNK         0.3453 
     86 H86       -74.2988   29.9106  -72.4549 H         1 UNK         0.2984 
     87 H87       -74.3973   29.4753  -74.5954 H         1 UNK         0.0554 
     88 H88       -74.0627   31.8816  -75.1237 H         1 UNK         0.0847 
     89 H89       -74.1050   30.9355  -76.6017 H         1 UNK         0.0847 
     90 H90       -72.5640   31.5194  -75.9704 H         1 UNK         0.0847 
     91 H91       -72.3072   29.0907  -76.5191 H         1 UNK         0.3141 
     92 H92       -71.3837   27.2028  -77.0195 H         1 UNK         0.0743 
     93 H93       -70.8021   25.4460  -74.5648 H         1 UNK         0.0784 
     94 H94       -69.8330   25.5309  -76.0348 H         1 UNK         0.0784 
     95 H95       -69.9324   26.9204  -74.9670 H         1 UNK         0.0784 
     96 H96       -73.4371   25.3722  -76.1861 H         1 UNK         0.3213 
     97 H97       -72.9221   23.2363  -79.0714 H         1 UNK         0.0855 
     98 H98       -73.6858   22.9027  -76.1209 H         1 UNK         0.0814 
     99 H99       -72.4247   22.0362  -76.9797 H         1 UNK         0.0814 
    100 H100      -74.1069   21.7960  -77.4239 H         1 UNK         0.0814 
    101 H101      -75.1613   24.4129  -77.5385 H         1 UNK         0.3105 
    102 H102      -76.1681   26.5161  -80.1739 H         1 UNK         0.0547 
    103 H103      -77.1349   24.3885  -81.0585 H         1 UNK         0.0837 
    104 H104      -77.5620   23.8884  -79.4278 H         1 UNK         0.0837 
    105 H105      -78.3337   25.2977  -80.1521 H         1 UNK         0.0837 
    106 H106      -77.5579   25.8064  -77.8200 H         1 UNK         0.3020 
    107 H107      -75.7459   27.7707  -75.4829 H         1 UNK         0.1245 
    108 H108      -78.4695   28.2490  -75.4023 H         1 UNK         0.0781 
    109 H109      -78.2351   28.4314  -77.0922 H         1 UNK         0.0781 
    110 H110      -79.2161   30.4855  -74.8142 H         1 UNK         0.0836 
    111 H111      -78.2111   31.9018  -74.7120 H         1 UNK         0.0836 
    112 H112      -77.9568   26.1532  -75.0091 H         1 UNK         0.3022 
    113 H113      -76.2942   22.9867  -74.7674 H         1 UNK         0.0747 
    114 H114      -77.2413   23.0027  -72.5356 H         1 UNK         0.0793 
    115 H115      -75.9683   24.2113  -72.5773 H         1 UNK         0.0793 
    116 H116      -77.6537   24.7078  -72.6420 H         1 UNK         0.0793 
    117 H117      -79.0131   24.0920  -74.5407 H         1 UNK         0.3047 
    118 H118      -79.9556   23.1283  -77.8107 H         1 UNK         0.0822 
    119 H119      -81.7394   21.8435  -76.6385 H         1 UNK         0.0807 
    120 H120      -80.7654   21.7947  -75.1691 H         1 UNK         0.0807 
    121 H121      -80.2208   20.9622  -76.6175 H         1 UNK         0.0807 
    122 H122      -81.3869   24.1946  -75.5468 H         1 UNK         0.2946 
    123 H123      -80.6178   27.6118  -76.1650 H         1 UNK         0.1144 
    124 H124      -83.0552   27.8445  -76.4894 H         1 UNK         0.0793 
    125 H125      -83.2174   26.1110  -76.7759 H         1 UNK         0.0793 
    126 H126      -82.3335   27.1181  -77.9143 H         1 UNK         0.0793 
    127 H127      -82.5164   26.5874  -74.3982 H         1 UNK         0.2896 
@<TRIPOS>BOND
     1    1    2 1    
     2    1   67 1    
     3    1   68 1    
     4    1   69 1    
     5    2    3 2    
     6    2    4 am   BACKBONE|DICT|INTERRES
     7    4    5 1    
     8    4   70 1    
     9    5    6 1    
    10    5   65 1    
    11    5   71 1    
    12    6    7 1    
    13    6   72 1    
    14    6   73 1    
    15    7    8 1    
    16    8    9 1    
    17    8   74 1    
    18    8   75 1    
    19    9   10 ar   
    20    9   14 ar   
    21   10   11 ar   
    22   10   76 1    
    23   11   12 ar   
    24   11   48 1    
    25   12   13 ar   
    26   12   77 1    
    27   13   14 ar   
    28   13   15 1    
    29   14   78 1    
    30   15   16 1    
    31   15   79 1    
    32   15   80 1    
    33   16   17 1    
    34   17   18 1    
    35   17   81 1    
    36   17   82 1    
    37   18   19 1    
    38   18   22 1    
    39   18   83 1    
    40   19   20 am   BACKBONE|DICT|INTERRES
    41   19   21 2    
    42   20   84 1    
    43   20   85 1    
    44   22   23 am   BACKBONE|DICT|INTERRES
    45   22   86 1    
    46   23   24 2    
    47   23   25 1    
    48   25   26 1    
    49   25   27 1    
    50   25   87 1    
    51   26   88 1    
    52   26   89 1    
    53   26   90 1    
    54   27   28 am   BACKBONE|DICT|INTERRES
    55   27   91 1    
    56   28   29 2    
    57   28   30 1    
    58   30   31 1    
    59   30   32 1    
    60   30   92 1    
    61   31   93 1    
    62   31   94 1    
    63   31   95 1    
    64   32   33 am   BACKBONE|DICT|INTERRES
    65   32   96 1    
    66   33   34 2    
    67   33   35 1    
    68   35   36 1    
    69   35   37 1    
    70   35   97 1    
    71   36   98 1    
    72   36   99 1    
    73   36  100 1    
    74   37   38 am   BACKBONE|DICT|INTERRES
    75   37  101 1    
    76   38   39 2    
    77   38   40 1    
    78   40   41 1    
    79   40   42 1    
    80   40  102 1    
    81   41  103 1    
    82   41  104 1    
    83   41  105 1    
    84   42   43 am   BACKBONE|DICT|INTERRES
    85   42  106 1    
    86   43   44 2    
    87   43   45 1    
    88   45   46 1    
    89   45   49 1    
    90   45  107 1    
    91   46   47 1    
    92   46  108 1    
    93   46  109 1    
    94   47   48 1    
    95   48  110 1    
    96   48  111 1    
    97   49   50 am   BACKBONE|DICT|INTERRES
    98   49  112 1    
    99   50   51 2    
   100   50   52 1    
   101   52   53 1    
   102   52   54 1    
   103   52  113 1    
   104   53  114 1    
   105   53  115 1    
   106   53  116 1    
   107   54   55 am   BACKBONE|DICT|INTERRES
   108   54  117 1    
   109   55   56 2    
   110   55   57 1    
   111   57   58 1    
   112   57   59 1    
   113   57  118 1    
   114   58  119 1    
   115   58  120 1    
   116   58  121 1    
   117   59   60 am   BACKBONE|DICT|INTERRES
   118   59  122 1    
   119   60   61 2    
   120   60   62 1    
   121   62   63 1    
   122   62   64 1    
   123   62  123 1    
   124   63  124 1    
   125   63  125 1    
   126   63  126 1    
   127   64   65 am   BACKBONE|DICT|INTERRES
   128   64  127 1    
   129   65   66 2    
@<TRIPOS>SUBSTRUCTURE
     1 UNK         1 GROUP             0       ****    0 ROOT    
