@<TRIPOS>MOLECULE
3R135
127   129    1
SMALL
USER_CHARGES


@<TRIPOS>ATOM
      1 CA        -83.3671   25.5400  -73.5006 C.3       0 UNK        -0.1998 
      2 C         -82.3834   26.2700  -74.4016 C.2       0 UNK         0.4909 
      3 O         -82.5924   26.3247  -75.6138 O.2       0 UNK        -0.5240 
      4 N         -81.3109   26.8226  -73.8185 N.am      1 UNK        -0.4739 
      5 CA        -80.2425   27.5751  -74.4887 C.3       1 UNK         0.0864 
      6 C6        -79.1950   28.0946  -73.4787 C.3       11 UNK        -0.0881 
      7 S7        -79.9066   29.2461  -72.2502 S.3       11 UNK        -0.2682 
      8 C8        -79.2659   28.5843  -70.6721 C.3       11 UNK         0.0289 
      9 C9        -77.7655   28.3213  -70.7180 C.ar      11 UNK        -0.0687 
     10 C10       -77.2698   27.0393  -70.4654 C.ar      11 UNK        -0.0823 
     11 C11       -75.9047   26.7649  -70.5962 C.ar      11 UNK        -0.0830 
     12 C12       -75.0314   27.7907  -70.9742 C.ar      11 UNK        -0.1021 
     13 C13       -75.5124   29.0828  -71.2076 C.ar      11 UNK        -0.0753 
     14 C14       -76.8772   29.3443  -71.0598 C.ar      11 UNK        -0.0933 
     15 C15       -74.5697   30.2029  -71.6212 C.3       11 UNK         0.0166 
     16 S16       -74.9425   30.7944  -73.3017 S.3       11 UNK        -0.2615 
     17 C17       -73.8982   32.2914  -73.3828 C.3       11 UNK        -0.0865 
     18 CA        -72.9651   32.3014  -74.6262 C.3       10 UNK         0.0862 
     19 C         -72.2315   33.6638  -74.8247 C.2       10 UNK         0.5551 
     20 N         -71.0390   33.6894  -75.4077 N.am      10 UNK        -0.7319 
     21 O         -72.7597   34.7173  -74.4761 O.2       10 UNK        -0.5018 
     22 N         -72.1002   31.1115  -74.6999 N.am      10 UNK        -0.4509 
     23 C         -71.1109   30.7861  -73.8615 C.2       10 UNK         0.4899 
     24 O         -70.7761   31.4527  -72.8810 O.2       10 UNK        -0.4839 
     25 CA        -70.4117   29.4551  -74.1544 C.3       9 UNK         0.0222 
     26 CB        -68.9159   29.4917  -73.7931 C.3       9 UNK        -0.1966 
     27 N         -71.0759   28.4333  -73.3478 N.am      9 UNK        -0.4218 
     28 C         -71.7303   27.3266  -73.7257 C.2       9 UNK         0.5020 
     29 O         -72.3332   26.6451  -72.8971 O.2       9 UNK        -0.5274 
     30 CA        -71.7533   26.8562  -75.1955 C.3       8 UNK         0.0270 
     31 CB        -71.2531   25.4055  -75.3116 C.3       8 UNK        -0.1976 
     32 N         -73.1257   26.9368  -75.6925 N.am      8 UNK        -0.4313 
     33 C         -73.6868   28.0548  -76.1777 C.2       8 UNK         0.5041 
     34 O         -73.0531   29.0954  -76.3650 O.2       8 UNK        -0.5577 
     35 CA        -75.1992   28.0216  -76.4956 C.3       7 UNK         0.0284 
     36 CB        -75.6129   29.0631  -77.5560 C.3       7 UNK        -0.1958 
     37 N         -75.7021   26.6895  -76.8482 N.am      7 UNK        -0.4454 
     38 C         -75.3037   25.9019  -77.8611 C.2       7 UNK         0.5089 
     39 O         -74.5209   26.2550  -78.7436 O.2       7 UNK        -0.5125 
     40 CA        -75.8617   24.4604  -77.8592 C.3       6 UNK         0.0408 
     41 CB        -74.8936   23.4539  -78.5165 C.3       6 UNK        -0.1791 
     42 N         -76.2703   23.9975  -76.5202 N.am      6 UNK        -0.4762 
     43 C         -75.4752   23.8995  -75.4405 C.2       6 UNK         0.5007 
     44 O         -74.2701   24.1452  -75.4767 O.2       6 UNK        -0.5032 
     45 CA        -76.1165   23.5473  -74.0862 C.3       5 UNK         0.0783 
     46 C46       -75.6568   24.5555  -72.9980 C.3       11 UNK        -0.0857 
     47 S47       -76.2038   24.0856  -71.3253 S.3       11 UNK        -0.2512 
     48 C48       -75.3730   25.3625  -70.3232 C.3       11 UNK         0.0225 
     49 N         -77.5806   23.4932  -74.1793 N.am      5 UNK        -0.4615 
     50 C         -78.3241   22.4298  -73.8539 C.2       4 UNK         0.5053 
     51 O         -77.8653   21.3150  -73.6040 O.2       4 UNK        -0.5105 
     52 CA        -79.8370   22.6592  -73.7613 C.3       4 UNK         0.0263 
     53 CB        -80.1657   23.6324  -72.6144 C.3       4 UNK        -0.1981 
     54 N         -80.3827   23.1734  -75.0183 N.am      4 UNK        -0.4224 
     55 C         -81.0172   22.4238  -75.9322 C.2       3 UNK         0.4895 
     56 O         -81.1717   21.2065  -75.8272 O.2       3 UNK        -0.5091 
     57 CA        -81.6095   23.1358  -77.1633 C.3       3 UNK         0.0250 
     58 CB        -83.1422   23.2079  -77.0583 C.3       3 UNK        -0.1996 
     59 N         -81.0789   24.4874  -77.3560 N.am      3 UNK        -0.4254 
     60 C         -79.9324   24.7551  -77.9964 C.2       2 UNK         0.5004 
     61 O         -79.2421   23.8944  -78.5398 O.2       2 UNK        -0.5226 
     62 CA        -79.4506   26.2186  -78.0092 C.3       2 UNK         0.0269 
     63 CB        -79.9034   26.9252  -79.2960 C.3       2 UNK        -0.1926 
     64 N         -79.8921   26.9946  -76.8473 N.am      2 UNK        -0.4687 
     65 C         -79.5577   26.7269  -75.5782 C.2       1 UNK         0.5165 
     66 O         -78.7886   25.8173  -75.2528 O.2       1 UNK        -0.5079 
     67 H67       -84.3716   25.9366  -73.6447 H         1 UNK         0.0900 
     68 H68       -83.3819   24.4780  -73.7436 H         1 UNK         0.0900 
     69 H69       -83.1102   25.6449  -72.4468 H         1 UNK         0.0900 
     70 H70       -81.2112   26.7543  -72.8163 H         1 UNK         0.2959 
     71 H71       -80.7048   28.4401  -74.9691 H         1 UNK         0.1079 
     72 H72       -78.3897   28.6237  -73.9928 H         1 UNK         0.0837 
     73 H73       -78.7240   27.2511  -72.9710 H         1 UNK         0.0837 
     74 H74       -79.8124   27.6714  -70.4304 H         1 UNK         0.0685 
     75 H75       -79.4813   29.2954  -69.8736 H         1 UNK         0.0685 
     76 H76       -77.9486   26.2426  -70.1927 H         1 UNK         0.1434 
     77 H77       -73.9759   27.5838  -71.0852 H         1 UNK         0.1329 
     78 H78       -77.2554   30.3384  -71.2561 H         1 UNK         0.1335 
     79 H79       -74.6690   31.0271  -70.9132 H         1 UNK         0.0680 
     80 H80       -73.5295   29.8757  -71.5812 H         1 UNK         0.0680 
     81 H81       -74.5712   33.1504  -73.4030 H         1 UNK         0.1032 
     82 H82       -73.3105   32.3946  -72.4693 H         1 UNK         0.1032 
     83 H83       -73.6118   32.2233  -75.5009 H         1 UNK         0.0461 
     84 H84       -70.5722   34.5722  -75.5437 H         1 UNK         0.3453 
     85 H85       -70.6036   32.8331  -75.7108 H         1 UNK         0.3453 
     86 H86       -72.3536   30.4431  -75.4288 H         1 UNK         0.2984 
     87 H87       -70.4878   29.2851  -75.2253 H         1 UNK         0.0554 
     88 H88       -68.4035   30.2881  -74.3345 H         1 UNK         0.0847 
     89 H89       -68.4245   28.5542  -74.0540 H         1 UNK         0.0847 
     90 H90       -68.7555   29.6659  -72.7283 H         1 UNK         0.0847 
     91 H91       -71.1292   28.6705  -72.3675 H         1 UNK         0.3141 
     92 H92       -71.1065   27.4447  -75.8402 H         1 UNK         0.0743 
     93 H93       -70.2051   25.3339  -75.0186 H         1 UNK         0.0784 
     94 H94       -71.3312   25.0395  -76.3356 H         1 UNK         0.0784 
     95 H95       -71.8149   24.7240  -74.6718 H         1 UNK         0.0784 
     96 H96       -73.6892   26.1015  -75.5711 H         1 UNK         0.3213 
     97 H97       -75.6970   28.2937  -75.5631 H         1 UNK         0.0855 
     98 H98       -75.0976   28.9018  -78.5032 H         1 UNK         0.0814 
     99 H99       -75.3731   30.0741  -77.2240 H         1 UNK         0.0814 
    100 H100      -76.6857   29.0321  -77.7461 H         1 UNK         0.0814 
    101 H101      -76.3597   26.2866  -76.1943 H         1 UNK         0.3105 
    102 H102      -76.7593   24.4857  -78.4735 H         1 UNK         0.0547 
    103 H103      -75.3023   22.4438  -78.5026 H         1 UNK         0.0837 
    104 H104      -73.9254   23.4323  -78.0155 H         1 UNK         0.0837 
    105 H105      -74.7106   23.7122  -79.5602 H         1 UNK         0.0837 
    106 H106      -77.2509   23.7787  -76.4065 H         1 UNK         0.3020 
    107 H107      -75.7172   22.5648  -73.8248 H         1 UNK         0.1245 
    108 H108      -76.0323   25.5567  -73.2199 H         1 UNK         0.0781 
    109 H109      -74.5678   24.6359  -72.9700 H         1 UNK         0.0781 
    110 H110      -74.2979   25.3104  -70.5038 H         1 UNK         0.0836 
    111 H111      -75.5189   25.1311  -69.2673 H         1 UNK         0.0836 
    112 H112      -78.0424   24.3712  -74.4057 H         1 UNK         0.3022 
    113 H113      -80.3009   21.7012  -73.5158 H         1 UNK         0.0747 
    114 H114      -81.2416   23.7211  -72.4690 H         1 UNK         0.0793 
    115 H115      -79.7429   23.2793  -71.6726 H         1 UNK         0.0793 
    116 H116      -79.7643   24.6302  -72.7925 H         1 UNK         0.0793 
    117 H117      -80.2341   24.1542  -75.2128 H         1 UNK         0.3047 
    118 H118      -81.3647   22.5278  -78.0372 H         1 UNK         0.0822 
    119 H119      -83.5788   23.6680  -77.9448 H         1 UNK         0.0807 
    120 H120      -83.4638   23.7831  -76.1901 H         1 UNK         0.0807 
    121 H121      -83.5750   22.2108  -76.9659 H         1 UNK         0.0807 
    122 H122      -81.5944   25.2485  -76.9200 H         1 UNK         0.2946 
    123 H123      -78.3607   26.2029  -77.9985 H         1 UNK         0.1144 
    124 H124      -79.4922   27.9328  -79.3615 H         1 UNK         0.0793 
    125 H125      -80.9901   26.9998  -79.3549 H         1 UNK         0.0793 
    126 H126      -79.5653   26.3816  -80.1795 H         1 UNK         0.0793 
    127 H127      -80.5690   27.7234  -77.0257 H         1 UNK         0.2896 
@<TRIPOS>BOND
     1    1    2 1    
     2    1   67 1    
     3    1   68 1    
     4    1   69 1    
     5    2    3 2    
     6    2    4 am   BACKBONE|DICT|INTERRES
     7    4    5 1    
     8    4   70 1    
     9    5    6 1    
    10    5   65 1    
    11    5   71 1    
    12    6    7 1    
    13    6   72 1    
    14    6   73 1    
    15    7    8 1    
    16    8    9 1    
    17    8   74 1    
    18    8   75 1    
    19    9   10 ar   
    20    9   14 ar   
    21   10   11 ar   
    22   10   76 1    
    23   11   12 ar   
    24   11   48 1    
    25   12   13 ar   
    26   12   77 1    
    27   13   14 ar   
    28   13   15 1    
    29   14   78 1    
    30   15   16 1    
    31   15   79 1    
    32   15   80 1    
    33   16   17 1    
    34   17   18 1    
    35   17   81 1    
    36   17   82 1    
    37   18   19 1    
    38   18   22 1    
    39   18   83 1    
    40   19   20 am   BACKBONE|DICT|INTERRES
    41   19   21 2    
    42   20   84 1    
    43   20   85 1    
    44   22   23 am   BACKBONE|DICT|INTERRES
    45   22   86 1    
    46   23   24 2    
    47   23   25 1    
    48   25   26 1    
    49   25   27 1    
    50   25   87 1    
    51   26   88 1    
    52   26   89 1    
    53   26   90 1    
    54   27   28 am   BACKBONE|DICT|INTERRES
    55   27   91 1    
    56   28   29 2    
    57   28   30 1    
    58   30   31 1    
    59   30   32 1    
    60   30   92 1    
    61   31   93 1    
    62   31   94 1    
    63   31   95 1    
    64   32   33 am   BACKBONE|DICT|INTERRES
    65   32   96 1    
    66   33   34 2    
    67   33   35 1    
    68   35   36 1    
    69   35   37 1    
    70   35   97 1    
    71   36   98 1    
    72   36   99 1    
    73   36  100 1    
    74   37   38 am   BACKBONE|DICT|INTERRES
    75   37  101 1    
    76   38   39 2    
    77   38   40 1    
    78   40   41 1    
    79   40   42 1    
    80   40  102 1    
    81   41  103 1    
    82   41  104 1    
    83   41  105 1    
    84   42   43 am   BACKBONE|DICT|INTERRES
    85   42  106 1    
    86   43   44 2    
    87   43   45 1    
    88   45   46 1    
    89   45   49 1    
    90   45  107 1    
    91   46   47 1    
    92   46  108 1    
    93   46  109 1    
    94   47   48 1    
    95   48  110 1    
    96   48  111 1    
    97   49   50 am   BACKBONE|DICT|INTERRES
    98   49  112 1    
    99   50   51 2    
   100   50   52 1    
   101   52   53 1    
   102   52   54 1    
   103   52  113 1    
   104   53  114 1    
   105   53  115 1    
   106   53  116 1    
   107   54   55 am   BACKBONE|DICT|INTERRES
   108   54  117 1    
   109   55   56 2    
   110   55   57 1    
   111   57   58 1    
   112   57   59 1    
   113   57  118 1    
   114   58  119 1    
   115   58  120 1    
   116   58  121 1    
   117   59   60 am   BACKBONE|DICT|INTERRES
   118   59  122 1    
   119   60   61 2    
   120   60   62 1    
   121   62   63 1    
   122   62   64 1    
   123   62  123 1    
   124   63  124 1    
   125   63  125 1    
   126   63  126 1    
   127   64   65 am   BACKBONE|DICT|INTERRES
   128   64  127 1    
   129   65   66 2    
@<TRIPOS>SUBSTRUCTURE
     1 UNK         1 GROUP             0       ****    0 ROOT    
