@<TRIPOS>MOLECULE
3R135
127   129    1
SMALL
USER_CHARGES


@<TRIPOS>ATOM
      1 CA        -82.4329   31.0563  -76.0473 C.3       0 UNK        -0.1998 
      2 C         -81.7685   29.8116  -75.4785 C.2       0 UNK         0.4909 
      3 O         -80.9037   29.2265  -76.1312 O.2       0 UNK        -0.5240 
      4 N         -82.1573   29.4097  -74.2621 N.am      1 UNK        -0.4739 
      5 CA        -81.6596   28.2086  -73.5830 C.3       1 UNK         0.0864 
      6 C6        -81.9815   28.2320  -72.0678 C.3       11 UNK        -0.0881 
      7 S7        -81.3401   29.6614  -71.1162 S.3       11 UNK        -0.2682 
      8 C8        -79.7629   30.1399  -71.9197 C.3       11 UNK         0.0289 
      9 C9        -78.5881   29.1668  -71.7737 C.ar      11 UNK        -0.0687 
     10 C10       -78.6513   27.9933  -71.0078 C.ar      11 UNK        -0.0823 
     11 C11       -77.5442   27.1464  -70.8944 C.ar      11 UNK        -0.0830 
     12 C12       -76.3529   27.4954  -71.5365 C.ar      11 UNK        -0.1021 
     13 C13       -76.2694   28.6573  -72.3040 C.ar      11 UNK        -0.0753 
     14 C14       -77.3887   29.4855  -72.4215 C.ar      11 UNK        -0.0933 
     15 C15       -74.9687   28.9915  -73.0151 C.3       11 UNK         0.0166 
     16 S16       -73.7031   29.5866  -71.8483 S.3       11 UNK        -0.2615 
     17 C17       -73.5732   31.3538  -72.3001 C.3       11 UNK        -0.0865 
     18 CA        -72.3835   31.6529  -73.2531 C.3       10 UNK         0.0862 
     19 C         -71.0097   31.6171  -72.5164 C.2       10 UNK         0.5551 
     20 N         -70.0680   30.7552  -72.8851 N.am      10 UNK        -0.7319 
     21 O         -70.7906   32.4030  -71.5976 O.2       10 UNK        -0.5018 
     22 N         -72.4567   30.8212  -74.4615 N.am      10 UNK        -0.4509 
     23 C         -71.8640   31.0830  -75.6303 C.2       10 UNK         0.4899 
     24 O         -71.2695   32.1334  -75.8766 O.2       10 UNK        -0.4839 
     25 CA        -71.9581   29.9748  -76.6985 C.3       9 UNK         0.0222 
     26 CB        -70.8294   30.0646  -77.7470 C.3       9 UNK        -0.1966 
     27 N         -72.0387   28.6142  -76.1433 N.am      9 UNK        -0.4218 
     28 C         -71.1322   27.9954  -75.3654 C.2       9 UNK         0.5020 
     29 O         -70.1214   28.5509  -74.9320 O.2       9 UNK        -0.5274 
     30 CA        -71.3840   26.5208  -74.9804 C.3       8 UNK         0.0270 
     31 CB        -71.6719   26.3945  -73.4751 C.3       8 UNK        -0.1976 
     32 N         -72.4665   25.8802  -75.7350 N.am      8 UNK        -0.4313 
     33 C         -72.4050   25.5664  -77.0395 C.2       8 UNK         0.5041 
     34 O         -71.3773   25.6668  -77.7107 O.2       8 UNK        -0.5577 
     35 CA        -73.7014   25.1003  -77.7362 C.3       7 UNK         0.0284 
     36 CB        -73.6878   23.5737  -77.9182 C.3       7 UNK        -0.1958 
     37 N         -74.9431   25.4851  -77.0569 N.am      7 UNK        -0.4454 
     38 C         -75.3065   26.7249  -76.6967 C.2       7 UNK         0.5089 
     39 O         -74.6648   27.7371  -76.9787 O.2       7 UNK        -0.5125 
     40 CA        -76.5496   26.8516  -75.7999 C.3       6 UNK         0.0408 
     41 CB        -77.7868   27.1993  -76.6395 C.3       6 UNK        -0.1791 
     42 N         -76.8306   25.6602  -74.9915 N.am      6 UNK        -0.4762 
     43 C         -76.0076   25.0748  -74.1060 C.2       6 UNK         0.5007 
     44 O         -74.8567   25.4554  -73.8870 O.2       6 UNK        -0.5032 
     45 CA        -76.5426   23.8085  -73.4115 C.3       5 UNK         0.0783 
     46 C46       -77.5481   24.1280  -72.2745 C.3       11 UNK        -0.0857 
     47 S47       -76.7082   24.4548  -70.6899 S.3       11 UNK        -0.2512 
     48 C48       -77.6488   25.8814  -70.0447 C.3       11 UNK         0.0225 
     49 N         -77.1385   22.9178  -74.4073 N.am      5 UNK        -0.4615 
     50 C         -76.4755   21.9692  -75.0795 C.2       4 UNK         0.5053 
     51 O         -75.2884   21.7021  -74.8941 O.2       4 UNK        -0.5105 
     52 CA        -77.2646   21.1745  -76.1366 C.3       4 UNK         0.0263 
     53 CB        -77.7691   19.8497  -75.5423 C.3       4 UNK        -0.1981 
     54 N         -78.3991   21.9098  -76.7037 N.am      4 UNK        -0.4224 
     55 C         -78.2852   22.9812  -77.5002 C.2       3 UNK         0.4895 
     56 O         -77.2089   23.4676  -77.8477 O.2       3 UNK        -0.5091 
     57 CA        -79.5966   23.6476  -77.9537 C.3       3 UNK         0.0250 
     58 CB        -80.1787   22.9099  -79.1704 C.3       3 UNK        -0.1996 
     59 N         -80.6336   23.7802  -76.9180 N.am      3 UNK        -0.4254 
     60 C         -80.4588   24.3202  -75.7038 C.2       2 UNK         0.5004 
     61 O         -79.3597   24.6120  -75.2288 O.2       2 UNK        -0.5226 
     62 CA        -81.7051   24.5806  -74.8556 C.3       2 UNK         0.0269 
     63 CB        -81.9042   23.4505  -73.8327 C.3       2 UNK        -0.1926 
     64 N         -81.4686   25.8374  -74.1480 N.am      2 UNK        -0.4687 
     65 C         -82.2305   26.9313  -74.2363 C.2       1 UNK         0.5165 
     66 O         -83.3373   26.9534  -74.7823 O.2       1 UNK        -0.5079 
     67 H67       -81.6832   31.8184  -76.2581 H         1 UNK         0.0900 
     68 H68       -83.1627   31.4801  -75.3577 H         1 UNK         0.0900 
     69 H69       -82.9456   30.8150  -76.9780 H         1 UNK         0.0900 
     70 H70       -82.8835   29.9160  -73.7761 H         1 UNK         0.2959 
     71 H71       -80.5756   28.1738  -73.7114 H         1 UNK         0.1079 
     72 H72       -81.6003   27.3271  -71.5911 H         1 UNK         0.0837 
     73 H73       -83.0627   28.2046  -71.9167 H         1 UNK         0.0837 
     74 H74       -79.9344   30.3527  -72.9745 H         1 UNK         0.0685 
     75 H75       -79.4575   31.0891  -71.4775 H         1 UNK         0.0685 
     76 H76       -79.5562   27.7322  -70.4802 H         1 UNK         0.1434 
     77 H77       -75.4809   26.8619  -71.4469 H         1 UNK         0.1329 
     78 H78       -77.3242   30.3879  -73.0142 H         1 UNK         0.1335 
     79 H79       -74.5918   28.0951  -73.5067 H         1 UNK         0.0680 
     80 H80       -75.1395   29.7158  -73.8126 H         1 UNK         0.0680 
     81 H81       -73.4895   31.9403  -71.3832 H         1 UNK         0.1032 
     82 H82       -74.5066   31.6826  -72.7590 H         1 UNK         0.1032 
     83 H83       -72.5005   32.6886  -73.5781 H         1 UNK         0.0461 
     84 H84       -70.2225   30.0970  -73.6411 H         1 UNK         0.3453 
     85 H85       -69.1864   30.7553  -72.3980 H         1 UNK         0.3453 
     86 H86       -72.8876   29.9179  -74.3382 H         1 UNK         0.2984 
     87 H87       -72.9027   30.1401  -77.2184 H         1 UNK         0.0554 
     88 H88       -70.9259   29.2834  -78.5011 H         1 UNK         0.0847 
     89 H89       -69.8443   29.9687  -77.2891 H         1 UNK         0.0847 
     90 H90       -70.8531   31.0216  -78.2697 H         1 UNK         0.0847 
     91 H91       -72.8706   28.0966  -76.4189 H         1 UNK         0.3141 
     92 H92       -70.4612   25.9767  -75.1923 H         1 UNK         0.0743 
     93 H93       -72.5831   26.9195  -73.1907 H         1 UNK         0.0784 
     94 H94       -71.7829   25.3514  -73.1783 H         1 UNK         0.0784 
     95 H95       -70.8578   26.8146  -72.8828 H         1 UNK         0.0784 
     96 H96       -73.3418   25.7397  -75.2379 H         1 UNK         0.3213 
     97 H97       -73.7181   25.5656  -78.7237 H         1 UNK         0.0855 
     98 H98       -73.7227   23.0539  -76.9598 H         1 UNK         0.0814 
     99 H99       -72.7837   23.2478  -78.4345 H         1 UNK         0.0814 
    100 H100      -74.5366   23.2366  -78.5135 H         1 UNK         0.0814 
    101 H101      -75.5805   24.7323  -76.8280 H         1 UNK         0.3105 
    102 H102      -76.3730   27.6760  -75.1095 H         1 UNK         0.0547 
    103 H103      -77.6273   28.1144  -77.2114 H         1 UNK         0.0837 
    104 H104      -78.0241   26.4072  -77.3490 H         1 UNK         0.0837 
    105 H105      -78.6629   27.3612  -76.0108 H         1 UNK         0.0837 
    106 H106      -77.7616   25.2589  -75.1085 H         1 UNK         0.3020 
    107 H107      -75.6820   23.2981  -72.9717 H         1 UNK         0.1245 
    108 H108      -78.2120   24.9523  -72.5425 H         1 UNK         0.0781 
    109 H109      -78.2026   23.2722  -72.1013 H         1 UNK         0.0781 
    110 H110      -78.6920   25.5808  -69.9342 H         1 UNK         0.0836 
    111 H111      -77.2867   26.1104  -69.0417 H         1 UNK         0.0836 
    112 H112      -78.0918   23.1315  -74.6766 H         1 UNK         0.3022 
    113 H113      -76.5741   20.9430  -76.9506 H         1 UNK         0.0747 
    114 H114      -78.2572   19.2350  -76.2989 H         1 UNK         0.0793 
    115 H115      -76.9426   19.2644  -75.1364 H         1 UNK         0.0793 
    116 H116      -78.4801   20.0149  -74.7316 H         1 UNK         0.0793 
    117 H117      -79.3248   21.5875  -76.4612 H         1 UNK         0.3047 
    118 H118      -79.3422   24.6598  -78.2724 H         1 UNK         0.0822 
    119 H119      -81.0258   23.4491  -79.5948 H         1 UNK         0.0807 
    120 H120      -80.5150   21.9050  -78.9123 H         1 UNK         0.0807 
    121 H121      -79.4335   22.8110  -79.9613 H         1 UNK         0.0807 
    122 H122      -81.5730   23.5438  -77.2046 H         1 UNK         0.2946 
    123 H123      -82.5805   24.6502  -75.5055 H         1 UNK         0.1144 
    124 H124      -82.7671   23.6443  -73.1954 H         1 UNK         0.0793 
    125 H125      -81.0333   23.3292  -73.1868 H         1 UNK         0.0793 
    126 H126      -82.0776   22.4964  -74.3320 H         1 UNK         0.0793 
    127 H127      -80.5469   25.9114  -73.7385 H         1 UNK         0.2896 
@<TRIPOS>BOND
     1    1    2 1    
     2    1   67 1    
     3    1   68 1    
     4    1   69 1    
     5    2    3 2    
     6    2    4 am   BACKBONE|DICT|INTERRES
     7    4    5 1    
     8    4   70 1    
     9    5    6 1    
    10    5   65 1    
    11    5   71 1    
    12    6    7 1    
    13    6   72 1    
    14    6   73 1    
    15    7    8 1    
    16    8    9 1    
    17    8   74 1    
    18    8   75 1    
    19    9   10 ar   
    20    9   14 ar   
    21   10   11 ar   
    22   10   76 1    
    23   11   12 ar   
    24   11   48 1    
    25   12   13 ar   
    26   12   77 1    
    27   13   14 ar   
    28   13   15 1    
    29   14   78 1    
    30   15   16 1    
    31   15   79 1    
    32   15   80 1    
    33   16   17 1    
    34   17   18 1    
    35   17   81 1    
    36   17   82 1    
    37   18   19 1    
    38   18   22 1    
    39   18   83 1    
    40   19   20 am   BACKBONE|DICT|INTERRES
    41   19   21 2    
    42   20   84 1    
    43   20   85 1    
    44   22   23 am   BACKBONE|DICT|INTERRES
    45   22   86 1    
    46   23   24 2    
    47   23   25 1    
    48   25   26 1    
    49   25   27 1    
    50   25   87 1    
    51   26   88 1    
    52   26   89 1    
    53   26   90 1    
    54   27   28 am   BACKBONE|DICT|INTERRES
    55   27   91 1    
    56   28   29 2    
    57   28   30 1    
    58   30   31 1    
    59   30   32 1    
    60   30   92 1    
    61   31   93 1    
    62   31   94 1    
    63   31   95 1    
    64   32   33 am   BACKBONE|DICT|INTERRES
    65   32   96 1    
    66   33   34 2    
    67   33   35 1    
    68   35   36 1    
    69   35   37 1    
    70   35   97 1    
    71   36   98 1    
    72   36   99 1    
    73   36  100 1    
    74   37   38 am   BACKBONE|DICT|INTERRES
    75   37  101 1    
    76   38   39 2    
    77   38   40 1    
    78   40   41 1    
    79   40   42 1    
    80   40  102 1    
    81   41  103 1    
    82   41  104 1    
    83   41  105 1    
    84   42   43 am   BACKBONE|DICT|INTERRES
    85   42  106 1    
    86   43   44 2    
    87   43   45 1    
    88   45   46 1    
    89   45   49 1    
    90   45  107 1    
    91   46   47 1    
    92   46  108 1    
    93   46  109 1    
    94   47   48 1    
    95   48  110 1    
    96   48  111 1    
    97   49   50 am   BACKBONE|DICT|INTERRES
    98   49  112 1    
    99   50   51 2    
   100   50   52 1    
   101   52   53 1    
   102   52   54 1    
   103   52  113 1    
   104   53  114 1    
   105   53  115 1    
   106   53  116 1    
   107   54   55 am   BACKBONE|DICT|INTERRES
   108   54  117 1    
   109   55   56 2    
   110   55   57 1    
   111   57   58 1    
   112   57   59 1    
   113   57  118 1    
   114   58  119 1    
   115   58  120 1    
   116   58  121 1    
   117   59   60 am   BACKBONE|DICT|INTERRES
   118   59  122 1    
   119   60   61 2    
   120   60   62 1    
   121   62   63 1    
   122   62   64 1    
   123   62  123 1    
   124   63  124 1    
   125   63  125 1    
   126   63  126 1    
   127   64   65 am   BACKBONE|DICT|INTERRES
   128   64  127 1    
   129   65   66 2    
@<TRIPOS>SUBSTRUCTURE
     1 UNK         1 GROUP             0       ****    0 ROOT    
