@<TRIPOS>MOLECULE
3R135
127   129    1
SMALL
USER_CHARGES


@<TRIPOS>ATOM
      1 CA        -84.5238   30.2293  -73.6357 C.3       0 UNK        -0.1998 
      2 C         -83.2385   29.4488  -73.4045 C.2       0 UNK         0.4909 
      3 O         -82.5782   29.0582  -74.3677 O.2       0 UNK        -0.5240 
      4 N         -82.8755   29.2269  -72.1352 N.am      1 UNK        -0.4739 
      5 CA        -81.6946   28.4616  -71.7232 C.3       1 UNK         0.0864 
      6 C6        -81.3541   28.6930  -70.2282 C.3       11 UNK        -0.0881 
      7 S7        -80.8749   30.4281  -69.9040 S.3       11 UNK        -0.2682 
      8 C8        -79.0556   30.3264  -69.7781 C.3       11 UNK         0.0289 
      9 C9        -78.4413   29.5818  -70.9548 C.ar      11 UNK        -0.0687 
     10 C10       -78.4978   30.1252  -72.2425 C.ar      11 UNK        -0.0823 
     11 C11       -78.0336   29.4002  -73.3451 C.ar      11 UNK        -0.0830 
     12 C12       -77.4874   28.1299  -73.1328 C.ar      11 UNK        -0.1021 
     13 C13       -77.3798   27.5958  -71.8485 C.ar      11 UNK        -0.0753 
     14 C14       -77.8618   28.3248  -70.7607 C.ar      11 UNK        -0.0933 
     15 C15       -76.7582   26.2224  -71.6467 C.3       11 UNK         0.0166 
     16 S16       -75.0528   26.1370  -72.2778 S.3       11 UNK        -0.2615 
     17 C17       -74.1995   27.3700  -71.2345 C.3       11 UNK        -0.0865 
     18 CA        -73.9977   28.7495  -71.9221 C.3       10 UNK         0.0862 
     19 C         -73.1798   29.6856  -70.9851 C.2       10 UNK         0.5551 
     20 N         -71.9070   29.9465  -71.2604 N.am      10 UNK        -0.7319 
     21 O         -73.7083   30.1727  -69.9890 O.2       10 UNK        -0.5018 
     22 N         -73.4600   28.6001  -73.2834 N.am      10 UNK        -0.4509 
     23 C         -73.2874   29.5723  -74.1883 C.2       10 UNK         0.4899 
     24 O         -73.5965   30.7479  -73.9917 O.2       10 UNK        -0.4839 
     25 CA        -72.6871   29.1725  -75.5557 C.3       9 UNK         0.0222 
     26 CB        -71.5766   30.1466  -76.0022 C.3       9 UNK        -0.1966 
     27 N         -72.2309   27.7731  -75.6523 N.am      9 UNK        -0.4218 
     28 C         -71.2478   27.1878  -74.9490 C.2       9 UNK         0.5020 
     29 O         -70.5451   27.7844  -74.1321 O.2       9 UNK        -0.5274 
     30 CA        -71.0436   25.6751  -75.1232 C.3       8 UNK         0.0270 
     31 CB        -71.5602   24.9303  -73.8794 C.3       8 UNK        -0.1976 
     32 N         -71.7132   25.1177  -76.3009 N.am      8 UNK        -0.4313 
     33 C         -71.1139   24.8925  -77.4767 C.2       8 UNK         0.5041 
     34 O         -69.9711   25.2653  -77.7453 O.2       8 UNK        -0.5577 
     35 CA        -71.9044   24.0887  -78.5183 C.3       7 UNK         0.0284 
     36 CB        -72.0354   22.6187  -78.0818 C.3       7 UNK        -0.1958 
     37 N         -73.2395   24.6457  -78.7374 N.am      7 UNK        -0.4454 
     38 C         -73.6676   25.1696  -79.8947 C.2       7 UNK         0.5089 
     39 O         -72.9703   25.2581  -80.9063 O.2       7 UNK        -0.5125 
     40 CA        -75.1257   25.6683  -79.9593 C.3       6 UNK         0.0408 
     41 CB        -76.0051   24.6475  -80.6990 C.3       6 UNK        -0.1791 
     42 N         -75.7273   25.9490  -78.6541 N.am      6 UNK        -0.4762 
     43 C         -75.3354   26.9259  -77.8224 C.2       6 UNK         0.5007 
     44 O         -74.4250   27.7117  -78.0795 O.2       6 UNK        -0.5032 
     45 CA        -76.0485   27.0052  -76.4544 C.3       5 UNK         0.0783 
     46 C46       -77.2465   27.9937  -76.5330 C.3       11 UNK        -0.0857 
     47 S47       -76.8085   29.6447  -75.8900 S.3       11 UNK        -0.2512 
     48 C48       -78.1925   29.9894  -74.7470 C.3       11 UNK         0.0225 
     49 N         -76.4449   25.6893  -75.9291 N.am      5 UNK        -0.4615 
     50 C         -75.6346   24.6266  -75.7822 C.2       4 UNK         0.5053 
     51 O         -74.4230   24.6652  -76.0021 O.2       4 UNK        -0.5105 
     52 CA        -76.2648   23.2744  -75.3942 C.3       4 UNK         0.0263 
     53 CB        -75.8796   22.8849  -73.9589 C.3       4 UNK        -0.1981 
     54 N         -77.7221   23.2172  -75.5367 N.am      4 UNK        -0.4224 
     55 C         -78.4074   23.3933  -76.6761 C.2       3 UNK         0.4895 
     56 O         -77.8735   23.5482  -77.7758 O.2       3 UNK        -0.5091 
     57 CA        -79.9434   23.4611  -76.5710 C.3       3 UNK         0.0250 
     58 CB        -80.5696   22.1538  -77.0832 C.3       3 UNK        -0.1996 
     59 N         -80.4757   23.7557  -75.2310 N.am      3 UNK        -0.4254 
     60 C         -80.2150   24.8495  -74.4993 C.2       2 UNK         0.5004 
     61 O         -79.4026   25.7193  -74.8252 O.2       2 UNK        -0.5226 
     62 CA        -80.9616   24.9636  -73.1644 C.3       2 UNK         0.0269 
     63 CB        -80.3507   24.0388  -72.0960 C.3       2 UNK        -0.1926 
     64 N         -80.9148   26.3490  -72.7026 N.am      2 UNK        -0.4687 
     65 C         -81.8915   26.9636  -72.0259 C.2       1 UNK         0.5165 
     66 O         -82.9176   26.3980  -71.6386 O.2       1 UNK        -0.5079 
     67 H67       -84.3158   31.1333  -74.2074 H         1 UNK         0.0900 
     68 H68       -85.2333   29.6246  -74.1998 H         1 UNK         0.0900 
     69 H69       -84.9973   30.5222  -72.6988 H         1 UNK         0.0900 
     70 H70       -83.4590   29.5636  -71.3830 H         1 UNK         0.2959 
     71 H71       -80.8564   28.8100  -72.3273 H         1 UNK         0.1079 
     72 H72       -82.2127   28.4497  -69.5995 H         1 UNK         0.0837 
     73 H73       -80.5522   28.0297  -69.8999 H         1 UNK         0.0837 
     74 H74       -78.6439   31.3355  -69.7327 H         1 UNK         0.0685 
     75 H75       -78.7938   29.8448  -68.8346 H         1 UNK         0.0685 
     76 H76       -78.9520   31.0963  -72.3869 H         1 UNK         0.1434 
     77 H77       -77.1252   27.5399  -73.9567 H         1 UNK         0.1329 
     78 H78       -77.8069   27.9044  -69.7659 H         1 UNK         0.1335 
     79 H79       -77.3600   25.4882  -72.1809 H         1 UNK         0.0680 
     80 H80       -76.7690   25.9318  -70.5951 H         1 UNK         0.0680 
     81 H81       -74.7493   27.4898  -70.2989 H         1 UNK         0.1032 
     82 H82       -73.2332   26.9433  -70.9586 H         1 UNK         0.1032 
     83 H83       -74.9784   29.2147  -72.0332 H         1 UNK         0.0461 
     84 H84       -71.3805   30.5524  -70.6514 H         1 UNK         0.3453 
     85 H85       -71.4713   29.5408  -72.0748 H         1 UNK         0.3453 
     86 H86       -73.1831   27.6639  -73.5337 H         1 UNK         0.2984 
     87 H87       -73.5057   29.2753  -76.2670 H         1 UNK         0.0554 
     88 H88       -71.1838   29.8771  -76.9825 H         1 UNK         0.0847 
     89 H89       -70.7435   30.1656  -75.2992 H         1 UNK         0.0847 
     90 H90       -71.9571   31.1660  -76.0779 H         1 UNK         0.0847 
     91 H91       -72.7327   27.2001  -76.3172 H         1 UNK         0.3141 
     92 H92       -69.9674   25.5022  -75.1937 H         1 UNK         0.0743 
     93 H93       -72.6391   25.0376  -73.7627 H         1 UNK         0.0784 
     94 H94       -71.3373   23.8648  -73.9370 H         1 UNK         0.0784 
     95 H95       -71.0931   25.3080  -72.9687 H         1 UNK         0.0784 
     96 H96       -72.6766   24.8096  -76.1656 H         1 UNK         0.3213 
     97 H97       -71.3249   24.1070  -79.4440 H         1 UNK         0.0855 
     98 H98       -72.6281   22.5131  -77.1720 H         1 UNK         0.0814 
     99 H99       -71.0559   22.1797  -77.8873 H         1 UNK         0.0814 
    100 H100      -72.5095   22.0187  -78.8588 H         1 UNK         0.0814 
    101 H101      -73.8705   24.6458  -77.9439 H         1 UNK         0.3105 
    102 H102      -75.1257   26.5975  -80.5330 H         1 UNK         0.0547 
    103 H103      -75.6063   24.4319  -81.6912 H         1 UNK         0.0837 
    104 H104      -76.0655   23.7017  -80.1586 H         1 UNK         0.0837 
    105 H105      -77.0204   25.0207  -80.8339 H         1 UNK         0.0837 
    106 H106      -76.4685   25.3263  -78.3535 H         1 UNK         0.3020 
    107 H107      -75.3136   27.3843  -75.7413 H         1 UNK         0.1245 
    108 H108      -78.1004   27.6181  -75.9708 H         1 UNK         0.0781 
    109 H109      -77.6279   28.1095  -77.5500 H         1 UNK         0.0781 
    110 H110      -79.1284   29.6339  -75.1805 H         1 UNK         0.0836 
    111 H111      -78.2870   31.0741  -74.6768 H         1 UNK         0.0836 
    112 H112      -77.4260   25.5771  -75.6984 H         1 UNK         0.3022 
    113 H113      -75.8417   22.5302  -76.0719 H         1 UNK         0.0747 
    114 H114      -76.1784   21.8613  -73.7326 H         1 UNK         0.0793 
    115 H115      -74.8003   22.9458  -73.8100 H         1 UNK         0.0793 
    116 H116      -76.3464   23.5399  -73.2238 H         1 UNK         0.0793 
    117 H117      -78.2535   23.1062  -74.6862 H         1 UNK         0.3047 
    118 H118      -80.2641   24.2724  -77.2279 H         1 UNK         0.0822 
    119 H119      -80.3139   21.3067  -76.4452 H         1 UNK         0.0807 
    120 H120      -80.2199   21.9200  -78.0901 H         1 UNK         0.0807 
    121 H121      -81.6565   22.2244  -77.1307 H         1 UNK         0.0807 
    122 H122      -81.1391   23.0863  -74.8670 H         1 UNK         0.2946 
    123 H123      -82.0007   24.6754  -73.3422 H         1 UNK         0.1144 
    124 H124      -80.3813   22.9949  -72.4104 H         1 UNK         0.0793 
    125 H125      -79.3105   24.2880  -71.8904 H         1 UNK         0.0793 
    126 H126      -80.8995   24.1061  -71.1564 H         1 UNK         0.0793 
    127 H127      -80.1228   26.8771  -73.0501 H         1 UNK         0.2896 
@<TRIPOS>BOND
     1    1    2 1    
     2    1   67 1    
     3    1   68 1    
     4    1   69 1    
     5    2    3 2    
     6    2    4 am   BACKBONE|DICT|INTERRES
     7    4    5 1    
     8    4   70 1    
     9    5    6 1    
    10    5   65 1    
    11    5   71 1    
    12    6    7 1    
    13    6   72 1    
    14    6   73 1    
    15    7    8 1    
    16    8    9 1    
    17    8   74 1    
    18    8   75 1    
    19    9   10 ar   
    20    9   14 ar   
    21   10   11 ar   
    22   10   76 1    
    23   11   12 ar   
    24   11   48 1    
    25   12   13 ar   
    26   12   77 1    
    27   13   14 ar   
    28   13   15 1    
    29   14   78 1    
    30   15   16 1    
    31   15   79 1    
    32   15   80 1    
    33   16   17 1    
    34   17   18 1    
    35   17   81 1    
    36   17   82 1    
    37   18   19 1    
    38   18   22 1    
    39   18   83 1    
    40   19   20 am   BACKBONE|DICT|INTERRES
    41   19   21 2    
    42   20   84 1    
    43   20   85 1    
    44   22   23 am   BACKBONE|DICT|INTERRES
    45   22   86 1    
    46   23   24 2    
    47   23   25 1    
    48   25   26 1    
    49   25   27 1    
    50   25   87 1    
    51   26   88 1    
    52   26   89 1    
    53   26   90 1    
    54   27   28 am   BACKBONE|DICT|INTERRES
    55   27   91 1    
    56   28   29 2    
    57   28   30 1    
    58   30   31 1    
    59   30   32 1    
    60   30   92 1    
    61   31   93 1    
    62   31   94 1    
    63   31   95 1    
    64   32   33 am   BACKBONE|DICT|INTERRES
    65   32   96 1    
    66   33   34 2    
    67   33   35 1    
    68   35   36 1    
    69   35   37 1    
    70   35   97 1    
    71   36   98 1    
    72   36   99 1    
    73   36  100 1    
    74   37   38 am   BACKBONE|DICT|INTERRES
    75   37  101 1    
    76   38   39 2    
    77   38   40 1    
    78   40   41 1    
    79   40   42 1    
    80   40  102 1    
    81   41  103 1    
    82   41  104 1    
    83   41  105 1    
    84   42   43 am   BACKBONE|DICT|INTERRES
    85   42  106 1    
    86   43   44 2    
    87   43   45 1    
    88   45   46 1    
    89   45   49 1    
    90   45  107 1    
    91   46   47 1    
    92   46  108 1    
    93   46  109 1    
    94   47   48 1    
    95   48  110 1    
    96   48  111 1    
    97   49   50 am   BACKBONE|DICT|INTERRES
    98   49  112 1    
    99   50   51 2    
   100   50   52 1    
   101   52   53 1    
   102   52   54 1    
   103   52  113 1    
   104   53  114 1    
   105   53  115 1    
   106   53  116 1    
   107   54   55 am   BACKBONE|DICT|INTERRES
   108   54  117 1    
   109   55   56 2    
   110   55   57 1    
   111   57   58 1    
   112   57   59 1    
   113   57  118 1    
   114   58  119 1    
   115   58  120 1    
   116   58  121 1    
   117   59   60 am   BACKBONE|DICT|INTERRES
   118   59  122 1    
   119   60   61 2    
   120   60   62 1    
   121   62   63 1    
   122   62   64 1    
   123   62  123 1    
   124   63  124 1    
   125   63  125 1    
   126   63  126 1    
   127   64   65 am   BACKBONE|DICT|INTERRES
   128   64  127 1    
   129   65   66 2    
@<TRIPOS>SUBSTRUCTURE
     1 UNK         1 GROUP             0       ****    0 ROOT    
