@<TRIPOS>MOLECULE
3R135
127   129    1
SMALL
USER_CHARGES


@<TRIPOS>ATOM
      1 CA        -82.4588   27.1122  -71.0392 C.3       0 UNK        -0.1998 
      2 C         -82.8908   27.3455  -72.4790 C.2       0 UNK         0.4909 
      3 O         -84.0884   27.3751  -72.7631 O.2       0 UNK        -0.5240 
      4 N         -81.9226   27.5040  -73.3909 N.am      1 UNK        -0.4739 
      5 CA        -82.1511   27.7416  -74.8249 C.3       1 UNK         0.0864 
      6 C6        -80.9548   28.4685  -75.4924 C.3       11 UNK        -0.0881 
      7 S7        -80.6724   30.1300  -74.7865 S.3       11 UNK        -0.2682 
      8 C8        -78.8808   30.3636  -75.0572 C.3       11 UNK         0.0289 
      9 C9        -78.0102   29.9662  -73.8643 C.ar      11 UNK        -0.0687 
     10 C10       -78.2660   28.8091  -73.1190 C.ar      11 UNK        -0.0823 
     11 C11       -77.4755   28.4769  -72.0163 C.ar      11 UNK        -0.0830 
     12 C12       -76.4137   29.3102  -71.6570 C.ar      11 UNK        -0.1021 
     13 C13       -76.1174   30.4479  -72.4116 C.ar      11 UNK        -0.0753 
     14 C14       -76.9200   30.7705  -73.5110 C.ar      11 UNK        -0.0933 
     15 C15       -74.9423   31.3373  -72.0284 C.3       11 UNK         0.0166 
     16 S16       -73.3712   30.7313  -72.7241 S.3       11 UNK        -0.2615 
     17 C17       -72.9888   29.3410  -71.6014 C.3       11 UNK        -0.0865 
     18 CA        -71.5339   28.8223  -71.7419 C.3       10 UNK         0.0862 
     19 C         -71.2277   27.7432  -70.6613 C.2       10 UNK         0.5551 
     20 N         -70.9434   26.4977  -71.0222 N.am      10 UNK        -0.7319 
     21 O         -71.2487   28.0465  -69.4711 O.2       10 UNK        -0.5018 
     22 N         -71.2554   28.4143  -73.1268 N.am      10 UNK        -0.4509 
     23 C         -70.0433   28.2466  -73.6720 C.2       10 UNK         0.4899 
     24 O         -68.9858   28.3720  -73.0548 O.2       10 UNK        -0.4839 
     25 CA        -70.0063   27.8824  -75.1687 C.3       9 UNK         0.0222 
     26 CB        -69.8099   26.3683  -75.3499 C.3       9 UNK        -0.1966 
     27 N         -71.2218   28.2964  -75.8752 N.am      9 UNK        -0.4218 
     28 C         -71.5371   29.5623  -76.1866 C.2       9 UNK         0.5020 
     29 O         -70.7724   30.5150  -76.0251 O.2       9 UNK        -0.5274 
     30 CA        -72.9615   29.8032  -76.7200 C.3       8 UNK         0.0270 
     31 CB        -73.0671   31.0334  -77.6468 C.3       8 UNK        -0.1976 
     32 N         -73.5677   28.6085  -77.3210 N.am      8 UNK        -0.4313 
     33 C         -73.2426   28.0082  -78.4786 C.2       8 UNK         0.5041 
     34 O         -72.3422   28.3989  -79.2223 O.2       8 UNK        -0.5577 
     35 CA        -74.0323   26.7411  -78.8769 C.3       7 UNK         0.0284 
     36 CB        -73.1129   25.5079  -78.8661 C.3       7 UNK        -0.1958 
     37 N         -75.1890   26.4686  -78.0195 N.am      7 UNK        -0.4454 
     38 C         -76.3031   27.2127  -77.9600 C.2       7 UNK         0.5089 
     39 O         -76.5468   28.1366  -78.7358 O.2       7 UNK        -0.5125 
     40 CA        -77.2917   26.9131  -76.8172 C.3       6 UNK         0.0408 
     41 CB        -78.5556   26.2412  -77.3774 C.3       6 UNK        -0.1791 
     42 N         -76.7391   26.1008  -75.7245 N.am      6 UNK        -0.4762 
     43 C         -75.7029   26.4398  -74.9345 C.2       6 UNK         0.5007 
     44 O         -75.0760   27.4935  -75.0574 O.2       6 UNK        -0.5032 
     45 CA        -75.2288   25.4084  -73.8824 C.3       5 UNK         0.0783 
     46 C46       -75.6512   25.7959  -72.4442 C.3       11 UNK        -0.0857 
     47 S47       -77.4550   25.6970  -72.1521 S.3       11 UNK        -0.2512 
     48 C48       -77.7729   27.2219  -71.2076 C.3       11 UNK         0.0225 
     49 N         -75.6156   24.0304  -74.1966 N.am      5 UNK        -0.4615 
     50 C         -75.2188   23.3314  -75.2675 C.2       4 UNK         0.5053 
     51 O         -74.4019   23.7511  -76.0877 O.2       4 UNK        -0.5105 
     52 CA        -75.8766   21.9536  -75.4869 C.3       4 UNK         0.0263 
     53 CB        -74.9473   20.8357  -74.9879 C.3       4 UNK        -0.1981 
     54 N         -77.2053   21.7885  -74.8736 N.am      4 UNK        -0.4224 
     55 C         -78.2684   22.5723  -75.1051 C.2       3 UNK         0.4895 
     56 O         -78.2323   23.5705  -75.8282 O.2       3 UNK        -0.5091 
     57 CA        -79.5782   22.2055  -74.3950 C.3       3 UNK         0.0250 
     58 CB        -79.4576   22.3335  -72.8640 C.3       3 UNK        -0.1996 
     59 N         -80.6207   23.1018  -74.8871 N.am      3 UNK        -0.4254 
     60 C         -81.9363   22.8718  -74.8846 C.2       2 UNK         0.5004 
     61 O         -82.4527   21.8584  -74.4102 O.2       2 UNK        -0.5226 
     62 CA        -82.8097   23.9787  -75.4960 C.3       2 UNK         0.0269 
     63 CB        -84.3199   23.7510  -75.2783 C.3       2 UNK        -0.1926 
     64 N         -82.4194   25.2825  -74.9544 N.am      2 UNK        -0.4687 
     65 C         -82.5280   26.4540  -75.5966 C.2       1 UNK         0.5165 
     66 O         -82.9201   26.5479  -76.7606 O.2       1 UNK        -0.5079 
     67 H67       -82.8463   27.9045  -70.3992 H         1 UNK         0.0900 
     68 H68       -81.3743   27.0932  -70.9355 H         1 UNK         0.0900 
     69 H69       -82.8504   26.1612  -70.6793 H         1 UNK         0.0900 
     70 H70       -80.9588   27.4820  -73.0959 H         1 UNK         0.2959 
     71 H71       -83.0195   28.3983  -74.9186 H         1 UNK         0.1079 
     72 H72       -80.0479   27.8710  -75.4057 H         1 UNK         0.0837 
     73 H73       -81.1294   28.5987  -76.5624 H         1 UNK         0.0837 
     74 H74       -78.7288   31.4207  -75.2807 H         1 UNK         0.0685 
     75 H75       -78.5633   29.8251  -75.9487 H         1 UNK         0.0685 
     76 H76       -79.0820   28.1592  -73.3881 H         1 UNK         0.1434 
     77 H77       -75.8073   29.0663  -70.7961 H         1 UNK         0.1329 
     78 H78       -76.6964   31.6563  -74.0896 H         1 UNK         0.1335 
     79 H79       -75.1124   32.3522  -72.3907 H         1 UNK         0.0680 
     80 H80       -74.8636   31.4152  -70.9430 H         1 UNK         0.0680 
     81 H81       -73.1767   29.6683  -70.5768 H         1 UNK         0.1032 
     82 H82       -73.6908   28.5315  -71.8016 H         1 UNK         0.1032 
     83 H83       -70.8672   29.6578  -71.5195 H         1 UNK         0.0461 
     84 H84       -70.9069   26.2450  -71.9958 H         1 UNK         0.3453 
     85 H85       -70.7433   25.8110  -70.3124 H         1 UNK         0.3453 
     86 H86       -72.0647   28.3080  -73.7187 H         1 UNK         0.2984 
     87 H87       -69.1529   28.3962  -75.6162 H         1 UNK         0.0554 
     88 H88       -69.7183   26.1036  -76.4035 H         1 UNK         0.0847 
     89 H89       -70.6387   25.7963  -74.9308 H         1 UNK         0.0847 
     90 H90       -68.8983   26.0318  -74.8538 H         1 UNK         0.0847 
     91 H91       -71.9063   27.5806  -76.0687 H         1 UNK         0.3141 
     92 H92       -73.5673   30.0174  -75.8379 H         1 UNK         0.0743 
     93 H93       -72.4141   30.9463  -78.5155 H         1 UNK         0.0784 
     94 H94       -74.0872   31.1741  -78.0043 H         1 UNK         0.0784 
     95 H95       -72.7815   31.9440  -77.1188 H         1 UNK         0.0784 
     96 H96       -74.2932   28.1794  -76.7522 H         1 UNK         0.3213 
     97 H97       -74.3940   26.8939  -79.8959 H         1 UNK         0.0855 
     98 H98       -72.7207   25.3048  -77.8687 H         1 UNK         0.0814 
     99 H99       -72.2588   25.6488  -79.5301 H         1 UNK         0.0814 
    100 H100      -73.6402   24.6159  -79.2052 H         1 UNK         0.0814 
    101 H101      -75.0887   25.7150  -77.3511 H         1 UNK         0.3105 
    102 H102      -77.5766   27.8694  -76.3812 H         1 UNK         0.0547 
    103 H103      -79.0595   26.8919  -78.0933 H         1 UNK         0.0837 
    104 H104      -78.3180   25.3113  -77.8955 H         1 UNK         0.0837 
    105 H105      -79.2723   26.0072  -76.5913 H         1 UNK         0.0837 
    106 H106      -77.1768   25.1936  -75.5856 H         1 UNK         0.3020 
    107 H107      -74.1373   25.4378  -73.9165 H         1 UNK         0.1245 
    108 H108      -75.2849   26.7941  -72.2065 H         1 UNK         0.0781 
    109 H109      -75.1624   25.1332  -71.7284 H         1 UNK         0.0781 
    110 H110      -77.1843   27.1996  -70.2890 H         1 UNK         0.0836 
    111 H111      -78.8182   27.2347  -70.8974 H         1 UNK         0.0836 
    112 H112      -76.3042   23.6189  -73.5841 H         1 UNK         0.3022 
    113 H113      -76.0041   21.8348  -76.5649 H         1 UNK         0.0747 
    114 H114      -75.3391   19.8500  -75.2396 H         1 UNK         0.0793 
    115 H115      -73.9598   20.9145  -75.4454 H         1 UNK         0.0793 
    116 H116      -74.8096   20.8781  -73.9066 H         1 UNK         0.0793 
    117 H117      -77.3178   20.9942  -74.2597 H         1 UNK         0.3047 
    118 H118      -79.8298   21.1770  -74.6627 H         1 UNK         0.0822 
    119 H119      -78.6714   21.6910  -72.4666 H         1 UNK         0.0807 
    120 H120      -80.3849   22.0435  -72.3696 H         1 UNK         0.0807 
    121 H121      -79.2303   23.3561  -72.5638 H         1 UNK         0.0807 
    122 H122      -80.2578   23.9254  -75.3520 H         1 UNK         0.2946 
    123 H123      -82.6137   23.9610  -76.5709 H         1 UNK         0.1144 
    124 H124      -84.6360   22.7909  -75.6884 H         1 UNK         0.0793 
    125 H125      -84.9135   24.5212  -75.7709 H         1 UNK         0.0793 
    126 H126      -84.5771   23.7571  -74.2185 H         1 UNK         0.0793 
    127 H127      -82.0780   25.2861  -74.0031 H         1 UNK         0.2896 
@<TRIPOS>BOND
     1    1    2 1    
     2    1   67 1    
     3    1   68 1    
     4    1   69 1    
     5    2    3 2    
     6    2    4 am   BACKBONE|DICT|INTERRES
     7    4    5 1    
     8    4   70 1    
     9    5    6 1    
    10    5   65 1    
    11    5   71 1    
    12    6    7 1    
    13    6   72 1    
    14    6   73 1    
    15    7    8 1    
    16    8    9 1    
    17    8   74 1    
    18    8   75 1    
    19    9   10 ar   
    20    9   14 ar   
    21   10   11 ar   
    22   10   76 1    
    23   11   12 ar   
    24   11   48 1    
    25   12   13 ar   
    26   12   77 1    
    27   13   14 ar   
    28   13   15 1    
    29   14   78 1    
    30   15   16 1    
    31   15   79 1    
    32   15   80 1    
    33   16   17 1    
    34   17   18 1    
    35   17   81 1    
    36   17   82 1    
    37   18   19 1    
    38   18   22 1    
    39   18   83 1    
    40   19   20 am   BACKBONE|DICT|INTERRES
    41   19   21 2    
    42   20   84 1    
    43   20   85 1    
    44   22   23 am   BACKBONE|DICT|INTERRES
    45   22   86 1    
    46   23   24 2    
    47   23   25 1    
    48   25   26 1    
    49   25   27 1    
    50   25   87 1    
    51   26   88 1    
    52   26   89 1    
    53   26   90 1    
    54   27   28 am   BACKBONE|DICT|INTERRES
    55   27   91 1    
    56   28   29 2    
    57   28   30 1    
    58   30   31 1    
    59   30   32 1    
    60   30   92 1    
    61   31   93 1    
    62   31   94 1    
    63   31   95 1    
    64   32   33 am   BACKBONE|DICT|INTERRES
    65   32   96 1    
    66   33   34 2    
    67   33   35 1    
    68   35   36 1    
    69   35   37 1    
    70   35   97 1    
    71   36   98 1    
    72   36   99 1    
    73   36  100 1    
    74   37   38 am   BACKBONE|DICT|INTERRES
    75   37  101 1    
    76   38   39 2    
    77   38   40 1    
    78   40   41 1    
    79   40   42 1    
    80   40  102 1    
    81   41  103 1    
    82   41  104 1    
    83   41  105 1    
    84   42   43 am   BACKBONE|DICT|INTERRES
    85   42  106 1    
    86   43   44 2    
    87   43   45 1    
    88   45   46 1    
    89   45   49 1    
    90   45  107 1    
    91   46   47 1    
    92   46  108 1    
    93   46  109 1    
    94   47   48 1    
    95   48  110 1    
    96   48  111 1    
    97   49   50 am   BACKBONE|DICT|INTERRES
    98   49  112 1    
    99   50   51 2    
   100   50   52 1    
   101   52   53 1    
   102   52   54 1    
   103   52  113 1    
   104   53  114 1    
   105   53  115 1    
   106   53  116 1    
   107   54   55 am   BACKBONE|DICT|INTERRES
   108   54  117 1    
   109   55   56 2    
   110   55   57 1    
   111   57   58 1    
   112   57   59 1    
   113   57  118 1    
   114   58  119 1    
   115   58  120 1    
   116   58  121 1    
   117   59   60 am   BACKBONE|DICT|INTERRES
   118   59  122 1    
   119   60   61 2    
   120   60   62 1    
   121   62   63 1    
   122   62   64 1    
   123   62  123 1    
   124   63  124 1    
   125   63  125 1    
   126   63  126 1    
   127   64   65 am   BACKBONE|DICT|INTERRES
   128   64  127 1    
   129   65   66 2    
@<TRIPOS>SUBSTRUCTURE
     1 UNK         1 GROUP             0       ****    0 ROOT    
