@<TRIPOS>MOLECULE
3R135
127   129    1
SMALL
USER_CHARGES


@<TRIPOS>ATOM
      1 CA        -84.9472   25.1315  -74.1477 C.3       0 UNK        -0.1998 
      2 C         -83.8563   25.8666  -74.9111 C.2       0 UNK         0.4909 
      3 O         -84.0030   26.1094  -76.1094 O.2       0 UNK        -0.5240 
      4 N         -82.7541   26.2130  -74.2329 N.am      1 UNK        -0.4739 
      5 CA        -81.5932   26.9126  -74.7951 C.3       1 UNK         0.0864 
      6 C6        -80.8099   27.6475  -73.6811 C.3       11 UNK        -0.0881 
      7 S7        -79.6831   28.9255  -74.3319 S.3       11 UNK        -0.2682 
      8 C8        -79.0801   29.6591  -72.7732 C.3       11 UNK         0.0289 
      9 C9        -77.6798   29.1934  -72.3847 C.ar      11 UNK        -0.0687 
     10 C10       -77.3218   27.8402  -72.4265 C.ar      11 UNK        -0.0823 
     11 C11       -76.0284   27.4346  -72.0854 C.ar      11 UNK        -0.0830 
     12 C12       -75.0941   28.3868  -71.6714 C.ar      11 UNK        -0.1021 
     13 C13       -75.4365   29.7401  -71.6303 C.ar      11 UNK        -0.0753 
     14 C14       -76.7302   30.1369  -71.9786 C.ar      11 UNK        -0.0933 
     15 C15       -74.3880   30.7736  -71.2640 C.3       11 UNK         0.0166 
     16 S16       -73.5321   31.3480  -72.7616 S.3       11 UNK        -0.2615 
     17 C17       -72.0417   32.1180  -72.0440 C.3       11 UNK        -0.0865 
     18 CA        -70.7639   31.2519  -72.2022 C.3       10 UNK         0.0862 
     19 C         -70.7592   30.0150  -71.2533 C.2       10 UNK         0.5551 
     20 N         -70.6648   28.7851  -71.7454 N.am      10 UNK        -0.7319 
     21 O         -70.8306   30.1805  -70.0380 O.2       10 UNK        -0.5018 
     22 N         -70.4838   30.9536  -73.6155 N.am      10 UNK        -0.4509 
     23 C         -69.2746   30.6508  -74.1016 C.2       10 UNK         0.4899 
     24 O         -68.2435   30.6844  -73.4273 O.2       10 UNK        -0.4839 
     25 CA        -69.2055   30.2471  -75.5896 C.3       9 UNK         0.0222 
     26 CB        -67.9053   29.4884  -75.9313 C.3       9 UNK        -0.1966 
     27 N         -70.3680   29.4886  -76.0760 N.am      9 UNK        -0.4218 
     28 C         -70.8629   28.3447  -75.5806 C.2       9 UNK         0.5020 
     29 O         -70.4915   27.8272  -74.5252 O.2       9 UNK        -0.5274 
     30 CA        -71.9563   27.6610  -76.4192 C.3       8 UNK         0.0270 
     31 CB        -71.7752   26.1328  -76.4452 C.3       8 UNK        -0.1976 
     32 N         -73.2960   27.9694  -75.9276 N.am      8 UNK        -0.4313 
     33 C         -73.9013   29.1602  -76.0094 C.2       8 UNK         0.5041 
     34 O         -73.3756   30.1607  -76.5030 O.2       8 UNK        -0.5577 
     35 CA        -75.3477   29.2127  -75.4789 C.3       7 UNK         0.0284 
     36 CB        -76.0328   30.5762  -75.7081 C.3       7 UNK        -0.1958 
     37 N         -76.1827   28.1164  -75.9925 N.am      7 UNK        -0.4454 
     38 C         -76.4599   27.8397  -77.2771 C.2       7 UNK         0.5089 
     39 O         -76.0461   28.5043  -78.2286 O.2       7 UNK        -0.5125 
     40 CA        -77.3721   26.6228  -77.5432 C.3       6 UNK         0.0408 
     41 CB        -77.2336   26.0894  -78.9889 C.3       6 UNK        -0.1791 
     42 N         -77.2226   25.5510  -76.5441 N.am      6 UNK        -0.4762 
     43 C         -76.1461   24.7645  -76.3683 C.2       6 UNK         0.5007 
     44 O         -75.1621   24.7954  -77.1075 O.2       6 UNK        -0.5032 
     45 CA        -76.1162   23.8037  -75.1570 C.3       5 UNK         0.0783 
     46 C46       -74.8967   24.0638  -74.2163 C.3       11 UNK        -0.0857 
     47 S47       -74.6248   25.8068  -73.7498 S.3       11 UNK        -0.2512 
     48 C48       -75.6136   25.9819  -72.2382 C.3       11 UNK         0.0225 
     49 N         -77.3922   23.7125  -74.4308 N.am      5 UNK        -0.4615 
     50 C         -77.6976   22.7001  -73.6056 C.2       4 UNK         0.5053 
     51 O         -76.9561   21.7401  -73.3943 O.2       4 UNK        -0.5105 
     52 CA        -79.0598   22.7541  -72.9022 C.3       4 UNK         0.0263 
     53 CB        -79.2108   24.0135  -72.0309 C.3       4 UNK        -0.1981 
     54 N         -80.1380   22.6869  -73.8850 N.am      4 UNK        -0.4224 
     55 C         -80.6863   21.5462  -74.3316 C.2       3 UNK         0.4895 
     56 O         -80.3834   20.4287  -73.9120 O.2       3 UNK        -0.5091 
     57 CA        -81.7663   21.6590  -75.4247 C.3       3 UNK         0.0250 
     58 CB        -83.1688   21.6011  -74.7973 C.3       3 UNK        -0.1996 
     59 N         -81.6519   22.8785  -76.2255 N.am      3 UNK        -0.4254 
     60 C         -80.6640   23.1366  -77.0937 C.2       2 UNK         0.5004 
     61 O         -79.7837   22.3317  -77.3959 O.2       2 UNK        -0.5226 
     62 CA        -80.6302   24.5535  -77.6884 C.3       2 UNK         0.0269 
     63 CB        -81.3387   24.5927  -79.0508 C.3       2 UNK        -0.1926 
     64 N         -81.2139   25.5681  -76.8044 N.am      2 UNK        -0.4687 
     65 C         -80.7281   25.9263  -75.6081 C.2       1 UNK         0.5165 
     66 O         -79.6932   25.4509  -75.1278 O.2       1 UNK        -0.5079 
     67 H67       -85.2070   24.2057  -74.6603 H         1 UNK         0.0900 
     68 H68       -84.6382   24.8819  -73.1328 H         1 UNK         0.0900 
     69 H69       -85.8426   25.7495  -74.0886 H         1 UNK         0.0900 
     70 H70       -82.6852   25.9732  -73.2538 H         1 UNK         0.2959 
     71 H71       -81.9626   27.6709  -75.4900 H         1 UNK         0.1079 
     72 H72       -80.2690   26.9500  -73.0425 H         1 UNK         0.0837 
     73 H73       -81.5174   28.1577  -73.0250 H         1 UNK         0.0837 
     74 H74       -79.7675   29.4398  -71.9555 H         1 UNK         0.0685 
     75 H75       -79.0936   30.7431  -72.8965 H         1 UNK         0.0685 
     76 H76       -78.0383   27.1038  -72.7565 H         1 UNK         0.1434 
     77 H77       -74.0847   28.0799  -71.4316 H         1 UNK         0.1329 
     78 H78       -76.9877   31.1870  -71.9552 H         1 UNK         0.1335 
     79 H79       -73.6717   30.3405  -70.5646 H         1 UNK         0.0680 
     80 H80       -74.8465   31.6232  -70.7558 H         1 UNK         0.0680 
     81 H81       -72.2152   32.3709  -70.9962 H         1 UNK         0.1032 
     82 H82       -71.8909   33.0743  -72.5469 H         1 UNK         0.1032 
     83 H83       -69.9396   31.8729  -71.8460 H         1 UNK         0.0461 
     84 H84       -70.6552   28.0034  -71.1110 H         1 UNK         0.3453 
     85 H85       -70.5951   28.6192  -72.7450 H         1 UNK         0.3453 
     86 H86       -71.2899   30.8785  -74.2200 H         1 UNK         0.2984 
     87 H87       -69.1981   31.1820  -76.1517 H         1 UNK         0.0554 
     88 H88       -67.0247   30.0886  -75.6988 H         1 UNK         0.0847 
     89 H89       -67.8541   29.2435  -76.9922 H         1 UNK         0.0847 
     90 H90       -67.8235   28.5579  -75.3681 H         1 UNK         0.0847 
     91 H91       -70.8233   29.8703  -76.8953 H         1 UNK         0.3141 
     92 H92       -71.8815   28.0193  -77.4481 H         1 UNK         0.0743 
     93 H93       -70.7810   25.8635  -76.8038 H         1 UNK         0.0784 
     94 H94       -72.4988   25.6594  -77.1093 H         1 UNK         0.0784 
     95 H95       -71.8950   25.6926  -75.4542 H         1 UNK         0.0784 
     96 H96       -73.7927   27.2111  -75.4778 H         1 UNK         0.3213 
     97 H97       -75.2734   29.0652  -74.4028 H         1 UNK         0.0855 
     98 H98       -76.1198   30.8147  -76.7683 H         1 UNK         0.0814 
     99 H99       -75.4641   31.3796  -75.2388 H         1 UNK         0.0814 
    100 H100      -77.0324   30.5926  -75.2740 H         1 UNK         0.0814 
    101 H101      -76.5657   27.4983  -75.2916 H         1 UNK         0.3105 
    102 H102      -78.3930   26.9900  -77.4300 H         1 UNK         0.0547 
    103 H103      -77.7925   25.1691  -79.1483 H         1 UNK         0.0837 
    104 H104      -76.1935   25.8888  -79.2477 H         1 UNK         0.0837 
    105 H105      -77.6035   26.8218  -79.7072 H         1 UNK         0.0837 
    106 H106      -78.0135   25.4621  -75.9139 H         1 UNK         0.3020 
    107 H107      -75.9616   22.8203  -75.6078 H         1 UNK         0.1245 
    108 H108      -73.9876   23.7354  -74.7231 H         1 UNK         0.0781 
    109 H109      -74.9469   23.4561  -73.3124 H         1 UNK         0.0781 
    110 H110      -75.0298   25.6580  -71.3755 H         1 UNK         0.0836 
    111 H111      -76.4902   25.3363  -72.2851 H         1 UNK         0.0836 
    112 H112      -78.0802   24.4397  -74.5843 H         1 UNK         0.3022 
    113 H113      -79.1246   21.8918  -72.2346 H         1 UNK         0.0747 
    114 H114      -80.1711   24.0222  -71.5151 H         1 UNK         0.0793 
    115 H115      -78.4346   24.0498  -71.2656 H         1 UNK         0.0793 
    116 H116      -79.1379   24.9310  -72.6111 H         1 UNK         0.0793 
    117 H117      -80.3979   23.5580  -74.3269 H         1 UNK         0.3047 
    118 H118      -81.6506   20.8023  -76.0923 H         1 UNK         0.0822 
    119 H119      -83.9482   21.6326  -75.5589 H         1 UNK         0.0807 
    120 H120      -83.3374   22.4278  -74.1063 H         1 UNK         0.0807 
    121 H121      -83.3053   20.6760  -74.2353 H         1 UNK         0.0807 
    122 H122      -82.3423   23.5977  -76.0681 H         1 UNK         0.2946 
    123 H123      -79.5822   24.8027  -77.8389 H         1 UNK         0.1144 
    124 H124      -81.2345   25.5697  -79.5230 H         1 UNK         0.0793 
    125 H125      -82.4036   24.3752  -78.9590 H         1 UNK         0.0793 
    126 H126      -80.9121   23.8572  -79.7345 H         1 UNK         0.0793 
    127 H127      -82.1167   25.9448  -77.0731 H         1 UNK         0.2896 
@<TRIPOS>BOND
     1    1    2 1    
     2    1   67 1    
     3    1   68 1    
     4    1   69 1    
     5    2    3 2    
     6    2    4 am   BACKBONE|DICT|INTERRES
     7    4    5 1    
     8    4   70 1    
     9    5    6 1    
    10    5   65 1    
    11    5   71 1    
    12    6    7 1    
    13    6   72 1    
    14    6   73 1    
    15    7    8 1    
    16    8    9 1    
    17    8   74 1    
    18    8   75 1    
    19    9   10 ar   
    20    9   14 ar   
    21   10   11 ar   
    22   10   76 1    
    23   11   12 ar   
    24   11   48 1    
    25   12   13 ar   
    26   12   77 1    
    27   13   14 ar   
    28   13   15 1    
    29   14   78 1    
    30   15   16 1    
    31   15   79 1    
    32   15   80 1    
    33   16   17 1    
    34   17   18 1    
    35   17   81 1    
    36   17   82 1    
    37   18   19 1    
    38   18   22 1    
    39   18   83 1    
    40   19   20 am   BACKBONE|DICT|INTERRES
    41   19   21 2    
    42   20   84 1    
    43   20   85 1    
    44   22   23 am   BACKBONE|DICT|INTERRES
    45   22   86 1    
    46   23   24 2    
    47   23   25 1    
    48   25   26 1    
    49   25   27 1    
    50   25   87 1    
    51   26   88 1    
    52   26   89 1    
    53   26   90 1    
    54   27   28 am   BACKBONE|DICT|INTERRES
    55   27   91 1    
    56   28   29 2    
    57   28   30 1    
    58   30   31 1    
    59   30   32 1    
    60   30   92 1    
    61   31   93 1    
    62   31   94 1    
    63   31   95 1    
    64   32   33 am   BACKBONE|DICT|INTERRES
    65   32   96 1    
    66   33   34 2    
    67   33   35 1    
    68   35   36 1    
    69   35   37 1    
    70   35   97 1    
    71   36   98 1    
    72   36   99 1    
    73   36  100 1    
    74   37   38 am   BACKBONE|DICT|INTERRES
    75   37  101 1    
    76   38   39 2    
    77   38   40 1    
    78   40   41 1    
    79   40   42 1    
    80   40  102 1    
    81   41  103 1    
    82   41  104 1    
    83   41  105 1    
    84   42   43 am   BACKBONE|DICT|INTERRES
    85   42  106 1    
    86   43   44 2    
    87   43   45 1    
    88   45   46 1    
    89   45   49 1    
    90   45  107 1    
    91   46   47 1    
    92   46  108 1    
    93   46  109 1    
    94   47   48 1    
    95   48  110 1    
    96   48  111 1    
    97   49   50 am   BACKBONE|DICT|INTERRES
    98   49  112 1    
    99   50   51 2    
   100   50   52 1    
   101   52   53 1    
   102   52   54 1    
   103   52  113 1    
   104   53  114 1    
   105   53  115 1    
   106   53  116 1    
   107   54   55 am   BACKBONE|DICT|INTERRES
   108   54  117 1    
   109   55   56 2    
   110   55   57 1    
   111   57   58 1    
   112   57   59 1    
   113   57  118 1    
   114   58  119 1    
   115   58  120 1    
   116   58  121 1    
   117   59   60 am   BACKBONE|DICT|INTERRES
   118   59  122 1    
   119   60   61 2    
   120   60   62 1    
   121   62   63 1    
   122   62   64 1    
   123   62  123 1    
   124   63  124 1    
   125   63  125 1    
   126   63  126 1    
   127   64   65 am   BACKBONE|DICT|INTERRES
   128   64  127 1    
   129   65   66 2    
@<TRIPOS>SUBSTRUCTURE
     1 UNK         1 GROUP             0       ****    0 ROOT    
