@<TRIPOS>MOLECULE
3R135
127   129    1
SMALL
USER_CHARGES


@<TRIPOS>ATOM
      1 CA        -80.0332   21.7623  -72.8233 C.3       0 UNK        -0.1998 
      2 C         -80.5916   23.1748  -72.8990 C.2       0 UNK         0.4909 
      3 O         -81.4245   23.4571  -73.7609 O.2       0 UNK        -0.5240 
      4 N         -80.1272   24.0674  -72.0132 N.am      1 UNK        -0.4739 
      5 CA        -80.5119   25.4827  -71.9339 C.3       1 UNK         0.0864 
      6 C6        -79.8381   26.1804  -70.7195 C.3       11 UNK        -0.0881 
      7 S7        -80.9347   27.3553  -69.8595 S.3       11 UNK        -0.2682 
      8 C8        -80.8921   28.8308  -70.9357 C.3       11 UNK         0.0289 
      9 C9        -79.5105   29.4381  -71.1814 C.ar      11 UNK        -0.0687 
     10 C10       -79.2661   30.0741  -72.4019 C.ar      11 UNK        -0.0823 
     11 C11       -78.0389   30.6932  -72.6550 C.ar      11 UNK        -0.0830 
     12 C12       -77.0461   30.6781  -71.6715 C.ar      11 UNK        -0.1021 
     13 C13       -77.2624   30.0258  -70.4541 C.ar      11 UNK        -0.0753 
     14 C14       -78.5002   29.4190  -70.2109 C.ar      11 UNK        -0.0933 
     15 C15       -76.1727   29.9946  -69.3897 C.3       11 UNK         0.0166 
     16 S16       -74.8267   28.8338  -69.8074 S.3       11 UNK        -0.2615 
     17 C17       -73.6620   29.8953  -70.7326 C.3       11 UNK        -0.0865 
     18 CA        -73.5533   29.5530  -72.2447 C.3       10 UNK         0.0862 
     19 C         -72.8631   30.7068  -73.0127 C.2       10 UNK         0.5551 
     20 N         -73.5824   31.4216  -73.8640 N.am      10 UNK        -0.7319 
     21 O         -71.6792   30.9747  -72.8170 O.2       10 UNK        -0.5018 
     22 N         -72.7739   28.3388  -72.5018 N.am      10 UNK        -0.4509 
     23 C         -73.2562   27.1087  -72.6928 C.2       10 UNK         0.4899 
     24 O         -74.4323   26.7864  -72.5315 O.2       10 UNK        -0.4839 
     25 CA        -72.2477   26.0916  -73.2468 C.3       9 UNK         0.0222 
     26 CB        -72.6223   24.6334  -72.9301 C.3       9 UNK        -0.1966 
     27 N         -72.1848   26.2758  -74.6966 N.am      9 UNK        -0.4218 
     28 C         -71.3196   27.0863  -75.3211 C.2       9 UNK         0.5020 
     29 O         -70.3976   27.6588  -74.7367 O.2       9 UNK        -0.5274 
     30 CA        -71.5368   27.3669  -76.8216 C.3       8 UNK         0.0270 
     31 CB        -70.2109   27.5099  -77.6005 C.3       8 UNK        -0.1976 
     32 N         -72.4654   26.4498  -77.4942 N.am      8 UNK        -0.4313 
     33 C         -72.2780   25.1589  -77.8129 C.2       8 UNK         0.5041 
     34 O         -71.2459   24.5371  -77.5572 O.2       8 UNK        -0.5577 
     35 CA        -73.4287   24.4271  -78.5380 C.3       7 UNK         0.0284 
     36 CB        -73.7197   23.0593  -77.8935 C.3       7 UNK        -0.1958 
     37 N         -74.6669   25.2104  -78.5596 N.am      7 UNK        -0.4454 
     38 C         -75.0578   26.0264  -79.5477 C.2       7 UNK         0.5089 
     39 O         -74.4467   26.1549  -80.6085 O.2       7 UNK        -0.5125 
     40 CA        -76.3259   26.8716  -79.3051 C.3       6 UNK         0.0408 
     41 CB        -77.5460   26.2046  -79.9585 C.3       6 UNK        -0.1791 
     42 N         -76.6161   27.1278  -77.8893 N.am      6 UNK        -0.4762 
     43 C         -75.8171   27.8016  -77.0469 C.2       6 UNK         0.5007 
     44 O         -74.7538   28.3199  -77.3878 O.2       6 UNK        -0.5032 
     45 CA        -76.2271   27.8105  -75.5602 C.3       5 UNK         0.0783 
     46 C46       -77.2933   28.8932  -75.2635 C.3       11 UNK        -0.0857 
     47 S47       -76.5406   30.5316  -75.0011 S.3       11 UNK        -0.2512 
     48 C48       -77.7946   31.3839  -73.9901 C.3       11 UNK         0.0225 
     49 N         -76.6593   26.4868  -75.1046 N.am      5 UNK        -0.4615 
     50 C         -75.9220   25.3690  -75.1454 C.2       4 UNK         0.5053 
     51 O         -74.7635   25.3297  -75.5568 O.2       4 UNK        -0.5105 
     52 CA        -76.6198   24.0642  -74.7339 C.3       4 UNK         0.0263 
     53 CB        -76.6739   23.9069  -73.2050 C.3       4 UNK        -0.1981 
     54 N         -77.9707   24.0033  -75.2934 N.am      4 UNK        -0.4224 
     55 C         -78.2391   23.7648  -76.5857 C.2       3 UNK         0.4895 
     56 O         -77.3834   23.4609  -77.4163 O.2       3 UNK        -0.5091 
     57 CA        -79.7013   23.9194  -77.0385 C.3       3 UNK         0.0250 
     58 CB        -80.4344   22.5701  -76.9813 C.3       3 UNK        -0.1996 
     59 N         -80.4351   24.9176  -76.2542 N.am      3 UNK        -0.4254 
     60 C         -80.2402   26.2413  -76.3624 C.2       2 UNK         0.5004 
     61 O         -79.4492   26.7497  -77.1569 O.2       2 UNK        -0.5226 
     62 CA        -81.0103   27.1500  -75.3842 C.3       2 UNK         0.0269 
     63 CB        -82.3801   27.5328  -75.9645 C.3       2 UNK        -0.1926 
     64 N         -81.1882   26.5613  -74.0512 N.am      2 UNK        -0.4687 
     65 C         -80.1729   26.2052  -73.2529 C.2       1 UNK         0.5165 
     66 O         -78.9925   26.3702  -73.5575 O.2       1 UNK        -0.5079 
     67 H67       -80.8475   21.0400  -72.7721 H         1 UNK         0.0900 
     68 H68       -79.4395   21.5446  -73.7106 H         1 UNK         0.0900 
     69 H69       -79.4005   21.6203  -71.9475 H         1 UNK         0.0900 
     70 H70       -79.4338   23.7709  -71.3417 H         1 UNK         0.2959 
     71 H71       -81.5954   25.4985  -71.7969 H         1 UNK         0.1079 
     72 H72       -78.8932   26.6636  -70.9773 H         1 UNK         0.0837 
     73 H73       -79.5693   25.4387  -69.9657 H         1 UNK         0.0837 
     74 H74       -81.3673   28.5764  -71.8837 H         1 UNK         0.0685 
     75 H75       -81.5205   29.5978  -70.4816 H         1 UNK         0.0685 
     76 H76       -80.0400   30.0953  -73.1572 H         1 UNK         0.1434 
     77 H77       -76.1005   31.1652  -71.8608 H         1 UNK         0.1329 
     78 H78       -78.6773   28.9359  -69.2603 H         1 UNK         0.1335 
     79 H79       -75.7804   30.9990  -69.2260 H         1 UNK         0.0680 
     80 H80       -76.5969   29.6857  -68.4331 H         1 UNK         0.0680 
     81 H81       -73.9613   30.9362  -70.5996 H         1 UNK         0.1032 
     82 H82       -72.6813   29.8176  -70.2596 H         1 UNK         0.1032 
     83 H83       -74.5574   29.4228  -72.6540 H         1 UNK         0.0461 
     84 H84       -73.1400   32.1815  -74.3564 H         1 UNK         0.3453 
     85 H85       -74.5470   31.1942  -74.0601 H         1 UNK         0.3453 
     86 H86       -71.7997   28.5113  -72.7185 H         1 UNK         0.2984 
     87 H87       -71.2752   26.2852  -72.7891 H         1 UNK         0.0554 
     88 H88       -72.7791   24.4927  -71.8600 H         1 UNK         0.0847 
     89 H89       -71.8300   23.9505  -73.2365 H         1 UNK         0.0847 
     90 H90       -73.5337   24.3268  -73.4393 H         1 UNK         0.0847 
     91 H91       -72.9689   25.8932  -75.2211 H         1 UNK         0.3141 
     92 H92       -72.0283   28.3402  -76.8566 H         1 UNK         0.0743 
     93 H93       -69.6047   26.6057  -77.5408 H         1 UNK         0.0784 
     94 H94       -70.3899   27.7270  -78.6535 H         1 UNK         0.0784 
     95 H95       -69.6090   28.3272  -77.2014 H         1 UNK         0.0784 
     96 H96       -73.3681   26.8614  -77.7094 H         1 UNK         0.3213 
     97 H97       -73.0942   24.2483  -79.5619 H         1 UNK         0.0855 
     98 H98       -73.9824   23.1543  -76.8400 H         1 UNK         0.0814 
     99 H99       -72.8492   22.4048  -77.9528 H         1 UNK         0.0814 
    100 H100      -74.5416   22.5501  -78.3972 H         1 UNK         0.0814 
    101 H101      -75.2170   25.1839  -77.7095 H         1 UNK         0.3105 
    102 H102      -76.1692   27.8392  -79.7860 H         1 UNK         0.0547 
    103 H103      -77.3806   26.0462  -81.0250 H         1 UNK         0.0837 
    104 H104      -77.7588   25.2322  -79.5140 H         1 UNK         0.0837 
    105 H105      -78.4389   26.8219  -79.8575 H         1 UNK         0.0837 
    106 H106      -77.5051   26.7811  -77.5375 H         1 UNK         0.3020 
    107 H107      -75.3290   28.0374  -74.9809 H         1 UNK         0.1245 
    108 H108      -77.8329   28.6262  -74.3555 H         1 UNK         0.0781 
    109 H109      -78.0478   28.9558  -76.0499 H         1 UNK         0.0781 
    110 H110      -78.7186   31.4619  -74.5653 H         1 UNK         0.0836 
    111 H111      -77.4637   32.4072  -73.8071 H         1 UNK         0.0836 
    112 H112      -77.5800   26.4382  -74.6730 H         1 UNK         0.3022 
    113 H113      -76.0399   23.2312  -75.1373 H         1 UNK         0.0747 
    114 H114      -77.1710   22.9806  -72.9187 H         1 UNK         0.0793 
    115 H115      -75.6717   23.8762  -72.7795 H         1 UNK         0.0793 
    116 H116      -77.1942   24.7338  -72.7229 H         1 UNK         0.0793 
    117 H117      -78.7226   24.3168  -74.6968 H         1 UNK         0.3047 
    118 H118      -79.6878   24.2496  -78.0796 H         1 UNK         0.0822 
    119 H119      -81.4559   22.6579  -77.3516 H         1 UNK         0.0807 
    120 H120      -80.4790   22.1725  -75.9675 H         1 UNK         0.0807 
    121 H121      -79.9291   21.8268  -77.5996 H         1 UNK         0.0807 
    122 H122      -81.0660   24.5689  -75.5397 H         1 UNK         0.2946 
    123 H123      -80.4226   28.0631  -75.2657 H         1 UNK         0.1144 
    124 H124      -83.0281   26.6630  -76.0796 H         1 UNK         0.0793 
    125 H125      -82.2719   27.9915  -76.9486 H         1 UNK         0.0793 
    126 H126      -82.8936   28.2537  -75.3281 H         1 UNK         0.0793 
    127 H127      -82.1350   26.3524  -73.7672 H         1 UNK         0.2896 
@<TRIPOS>BOND
     1    1    2 1    
     2    1   67 1    
     3    1   68 1    
     4    1   69 1    
     5    2    3 2    
     6    2    4 am   BACKBONE|DICT|INTERRES
     7    4    5 1    
     8    4   70 1    
     9    5    6 1    
    10    5   65 1    
    11    5   71 1    
    12    6    7 1    
    13    6   72 1    
    14    6   73 1    
    15    7    8 1    
    16    8    9 1    
    17    8   74 1    
    18    8   75 1    
    19    9   10 ar   
    20    9   14 ar   
    21   10   11 ar   
    22   10   76 1    
    23   11   12 ar   
    24   11   48 1    
    25   12   13 ar   
    26   12   77 1    
    27   13   14 ar   
    28   13   15 1    
    29   14   78 1    
    30   15   16 1    
    31   15   79 1    
    32   15   80 1    
    33   16   17 1    
    34   17   18 1    
    35   17   81 1    
    36   17   82 1    
    37   18   19 1    
    38   18   22 1    
    39   18   83 1    
    40   19   20 am   BACKBONE|DICT|INTERRES
    41   19   21 2    
    42   20   84 1    
    43   20   85 1    
    44   22   23 am   BACKBONE|DICT|INTERRES
    45   22   86 1    
    46   23   24 2    
    47   23   25 1    
    48   25   26 1    
    49   25   27 1    
    50   25   87 1    
    51   26   88 1    
    52   26   89 1    
    53   26   90 1    
    54   27   28 am   BACKBONE|DICT|INTERRES
    55   27   91 1    
    56   28   29 2    
    57   28   30 1    
    58   30   31 1    
    59   30   32 1    
    60   30   92 1    
    61   31   93 1    
    62   31   94 1    
    63   31   95 1    
    64   32   33 am   BACKBONE|DICT|INTERRES
    65   32   96 1    
    66   33   34 2    
    67   33   35 1    
    68   35   36 1    
    69   35   37 1    
    70   35   97 1    
    71   36   98 1    
    72   36   99 1    
    73   36  100 1    
    74   37   38 am   BACKBONE|DICT|INTERRES
    75   37  101 1    
    76   38   39 2    
    77   38   40 1    
    78   40   41 1    
    79   40   42 1    
    80   40  102 1    
    81   41  103 1    
    82   41  104 1    
    83   41  105 1    
    84   42   43 am   BACKBONE|DICT|INTERRES
    85   42  106 1    
    86   43   44 2    
    87   43   45 1    
    88   45   46 1    
    89   45   49 1    
    90   45  107 1    
    91   46   47 1    
    92   46  108 1    
    93   46  109 1    
    94   47   48 1    
    95   48  110 1    
    96   48  111 1    
    97   49   50 am   BACKBONE|DICT|INTERRES
    98   49  112 1    
    99   50   51 2    
   100   50   52 1    
   101   52   53 1    
   102   52   54 1    
   103   52  113 1    
   104   53  114 1    
   105   53  115 1    
   106   53  116 1    
   107   54   55 am   BACKBONE|DICT|INTERRES
   108   54  117 1    
   109   55   56 2    
   110   55   57 1    
   111   57   58 1    
   112   57   59 1    
   113   57  118 1    
   114   58  119 1    
   115   58  120 1    
   116   58  121 1    
   117   59   60 am   BACKBONE|DICT|INTERRES
   118   59  122 1    
   119   60   61 2    
   120   60   62 1    
   121   62   63 1    
   122   62   64 1    
   123   62  123 1    
   124   63  124 1    
   125   63  125 1    
   126   63  126 1    
   127   64   65 am   BACKBONE|DICT|INTERRES
   128   64  127 1    
   129   65   66 2    
@<TRIPOS>SUBSTRUCTURE
     1 UNK         1 GROUP             0       ****    0 ROOT    
