@<TRIPOS>MOLECULE
3R135
127   129    1
SMALL
USER_CHARGES


@<TRIPOS>ATOM
      1 CA        -77.6064   23.2589  -68.6080 C.3       0 UNK        -0.1998 
      2 C         -78.8100   23.6860  -69.4350 C.2       0 UNK         0.4909 
      3 O         -79.9479   23.4436  -69.0305 O.2       0 UNK        -0.5240 
      4 N         -78.5683   24.3270  -70.5857 N.am      1 UNK        -0.4739 
      5 CA        -79.6022   24.7385  -71.5407 C.3       1 UNK         0.0864 
      6 C6        -79.0754   25.8441  -72.4934 C.3       11 UNK        -0.0881 
      7 S7        -80.3964   26.9894  -73.0118 S.3       11 UNK        -0.2682 
      8 C8        -80.0597   28.4400  -71.9605 C.3       11 UNK         0.0289 
      9 C9        -78.9296   29.2906  -72.5226 C.ar      11 UNK        -0.0687 
     10 C10       -79.1899   30.1959  -73.5542 C.ar      11 UNK        -0.0823 
     11 C11       -78.1609   30.9683  -74.1001 C.ar      11 UNK        -0.0830 
     12 C12       -76.8608   30.8305  -73.6060 C.ar      11 UNK        -0.1021 
     13 C13       -76.5898   29.9414  -72.5607 C.ar      11 UNK        -0.0753 
     14 C14       -77.6299   29.1788  -72.0190 C.ar      11 UNK        -0.0933 
     15 C15       -75.1662   29.7627  -72.0535 C.3       11 UNK         0.0166 
     16 S16       -74.4409   31.3111  -71.4389 S.3       11 UNK        -0.2615 
     17 C17       -72.7847   30.7381  -70.9290 C.3       11 UNK        -0.0865 
     18 CA        -71.7363   30.8702  -72.0645 C.3       10 UNK         0.0862 
     19 C         -70.2922   30.8313  -71.4951 C.2       10 UNK         0.5551 
     20 N         -69.7362   31.9818  -71.1418 N.am      10 UNK        -0.7319 
     21 O         -69.6903   29.7713  -71.3322 O.2       10 UNK        -0.5018 
     22 N         -71.9281   29.8408  -73.0960 N.am      10 UNK        -0.4509 
     23 C         -71.4773   29.9233  -74.3505 C.2       10 UNK         0.4899 
     24 O         -70.9576   30.9378  -74.8171 O.2       10 UNK        -0.4839 
     25 CA        -71.6125   28.6836  -75.2570 C.3       9 UNK         0.0222 
     26 CB        -70.2980   27.8797  -75.2736 C.3       9 UNK        -0.1966 
     27 N         -72.7622   27.7988  -75.0088 N.am      9 UNK        -0.4218 
     28 C         -73.0273   27.0194  -73.9495 C.2       9 UNK         0.5020 
     29 O         -72.3827   27.0469  -72.9007 O.2       9 UNK        -0.5274 
     30 CA        -74.2077   26.0365  -74.0693 C.3       8 UNK         0.0270 
     31 CB        -75.4987   26.6318  -73.4953 C.3       8 UNK        -0.1976 
     32 N         -74.4656   25.5747  -75.4348 N.am      8 UNK        -0.4313 
     33 C         -73.6657   24.7419  -76.1166 C.2       8 UNK         0.5041 
     34 O         -72.6022   24.2984  -75.6818 O.2       8 UNK        -0.5577 
     35 CA        -74.1384   24.3214  -77.5145 C.3       7 UNK         0.0284 
     36 CB        -75.1945   23.2134  -77.4119 C.3       7 UNK        -0.1958 
     37 N         -74.6961   25.4549  -78.2490 N.am      7 UNK        -0.4454 
     38 C         -73.9669   26.2982  -78.9906 C.2       7 UNK         0.5089 
     39 O         -72.7591   26.1698  -79.1932 O.2       7 UNK        -0.5125 
     40 CA        -74.7072   27.4976  -79.6071 C.3       6 UNK         0.0408 
     41 CB        -75.2354   27.1412  -81.0056 C.3       6 UNK        -0.1791 
     42 N         -75.8128   27.9941  -78.7830 N.am      6 UNK        -0.4762 
     43 C         -75.6765   28.5365  -77.5640 C.2       6 UNK         0.5007 
     44 O         -74.6003   28.6515  -76.9797 O.2       6 UNK        -0.5032 
     45 CA        -76.9665   29.0147  -76.8754 C.3       5 UNK         0.0783 
     46 C46       -77.2845   30.4654  -77.3263 C.3       11 UNK        -0.0857 
     47 S47       -78.9039   31.0919  -76.7627 S.3       11 UNK        -0.2512 
     48 C48       -78.4630   31.9507  -75.2208 C.3       11 UNK         0.0225 
     49 N         -78.1033   28.1066  -77.0628 N.am      5 UNK        -0.4615 
     50 C         -78.1520   26.8025  -76.7608 C.2       4 UNK         0.5053 
     51 O         -77.1755   26.1403  -76.3961 O.2       4 UNK        -0.5105 
     52 CA        -79.5536   26.1734  -76.8583 C.3       4 UNK         0.0263 
     53 CB        -80.1961   26.3814  -78.2486 C.3       4 UNK        -0.1981 
     54 N         -79.6038   24.7648  -76.4507 N.am      4 UNK        -0.4224 
     55 C         -79.1504   23.6841  -77.1048 C.2       3 UNK         0.4895 
     56 O         -78.5750   23.7251  -78.1930 O.2       3 UNK        -0.5091 
     57 CA        -79.3952   22.3089  -76.4454 C.3       3 UNK         0.0250 
     58 CB        -78.0705   21.5913  -76.1399 C.3       3 UNK        -0.1996 
     59 N         -80.1774   22.3804  -75.2082 N.am      3 UNK        -0.4254 
     60 C         -81.5058   22.5124  -75.1185 C.2       2 UNK         0.5004 
     61 O         -82.2549   22.5389  -76.0948 O.2       2 UNK        -0.5226 
     62 CA        -82.0986   22.6865  -73.7064 C.3       2 UNK         0.0269 
     63 CB        -82.2966   21.3239  -73.0132 C.3       2 UNK        -0.1926 
     64 N         -81.3637   23.6345  -72.8479 N.am      2 UNK        -0.4687 
     65 C         -80.1287   23.5245  -72.3346 C.2       1 UNK         0.5165 
     66 O         -79.3921   22.5526  -72.5248 O.2       1 UNK        -0.5079 
     67 H67       -77.6016   22.1761  -68.4853 H         1 UNK         0.0900 
     68 H68       -77.6496   23.7143  -67.6190 H         1 UNK         0.0900 
     69 H69       -76.6659   23.5512  -69.0749 H         1 UNK         0.0900 
     70 H70       -77.6133   24.4577  -70.8862 H         1 UNK         0.2959 
     71 H71       -80.4321   25.1414  -70.9546 H         1 UNK         0.1079 
     72 H72       -78.6049   25.4237  -73.3847 H         1 UNK         0.0837 
     73 H73       -78.2936   26.4240  -72.0040 H         1 UNK         0.0837 
     74 H74       -79.8359   28.1169  -70.9425 H         1 UNK         0.0685 
     75 H75       -80.9671   29.0421  -71.8944 H         1 UNK         0.0685 
     76 H76       -80.1944   30.2895  -73.9445 H         1 UNK         0.1434 
     77 H77       -76.0560   31.4150  -74.0309 H         1 UNK         0.1329 
     78 H78       -77.4244   28.4849  -71.2159 H         1 UNK         0.1335 
     79 H79       -75.1270   29.0162  -71.2589 H         1 UNK         0.0680 
     80 H80       -74.5593   29.3846  -72.8744 H         1 UNK         0.0680 
     81 H81       -72.8333   29.7134  -70.5556 H         1 UNK         0.1032 
     82 H82       -72.4983   31.3511  -70.0717 H         1 UNK         0.1032 
     83 H83       -71.8739   31.8463  -72.5352 H         1 UNK         0.0461 
     84 H84       -70.2248   32.8557  -71.2623 H         1 UNK         0.3453 
     85 H85       -68.8050   31.9784  -70.7553 H         1 UNK         0.3453 
     86 H86       -72.2290   28.9245  -72.7777 H         1 UNK         0.2984 
     87 H87       -71.7696   29.0659  -76.2669 H         1 UNK         0.0554 
     88 H88       -69.4587   28.5097  -75.5713 H         1 UNK         0.0847 
     89 H89       -70.3489   27.0514  -75.9807 H         1 UNK         0.0847 
     90 H90       -70.0612   27.4689  -74.2915 H         1 UNK         0.0847 
     91 H91       -73.4382   27.7918  -75.7697 H         1 UNK         0.3141 
     92 H92       -73.9533   25.1595  -73.4701 H         1 UNK         0.0743 
     93 H93       -75.3701   26.9073  -72.4488 H         1 UNK         0.0784 
     94 H94       -75.8155   27.5185  -74.0447 H         1 UNK         0.0784 
     95 H95       -76.3101   25.9074  -73.5392 H         1 UNK         0.0784 
     96 H96       -75.3530   25.8494  -75.8497 H         1 UNK         0.3213 
     97 H97       -73.2795   23.9196  -78.0570 H         1 UNK         0.0855 
     98 H98       -76.0782   23.5601  -76.8767 H         1 UNK         0.0814 
     99 H99       -74.8044   22.3465  -76.8770 H         1 UNK         0.0814 
    100 H100      -75.5134   22.8736  -78.3975 H         1 UNK         0.0814 
    101 H101      -75.6777   25.6567  -78.1064 H         1 UNK         0.3105 
    102 H102      -73.9842   28.3092  -79.7131 H         1 UNK         0.0547 
    103 H103      -74.4276   26.7899  -81.6492 H         1 UNK         0.0837 
    104 H104      -75.9862   26.3509  -80.9656 H         1 UNK         0.0837 
    105 H105      -75.6824   28.0066  -81.4949 H         1 UNK         0.0837 
    106 H106      -76.7417   27.9284  -79.1743 H         1 UNK         0.3020 
    107 H107      -76.7627   29.0282  -75.8034 H         1 UNK         0.1245 
    108 H108      -77.2909   30.5325  -78.4163 H         1 UNK         0.0781 
    109 H109      -76.5000   31.1473  -76.9921 H         1 UNK         0.0781 
    110 H110      -79.2988   32.5845  -74.9208 H         1 UNK         0.0836 
    111 H111      -77.6216   32.6224  -75.3979 H         1 UNK         0.0836 
    112 H112      -78.9609   28.5654  -77.3348 H         1 UNK         0.3022 
    113 H113      -80.1712   26.7013  -76.1302 H         1 UNK         0.0747 
    114 H114      -81.1569   25.8712  -78.3202 H         1 UNK         0.0793 
    115 H115      -79.5599   26.0081  -79.0517 H         1 UNK         0.0793 
    116 H116      -80.3835   27.4365  -78.4496 H         1 UNK         0.0793 
    117 H117      -80.0311   24.5979  -75.5523 H         1 UNK         0.3047 
    118 H118      -79.9484   21.7051  -77.1678 H         1 UNK         0.0822 
    119 H119      -78.2448   20.6003  -75.7204 H         1 UNK         0.0807 
    120 H120      -77.4625   22.1526  -75.4292 H         1 UNK         0.0807 
    121 H121      -77.4817   21.4541  -77.0475 H         1 UNK         0.0807 
    122 H122      -79.6599   22.3531  -74.3318 H         1 UNK         0.2946 
    123 H123      -83.0894   23.1237  -73.8448 H         1 UNK         0.1144 
    124 H124      -82.9338   20.6730  -73.6134 H         1 UNK         0.0793 
    125 H125      -82.7769   21.4400  -72.0416 H         1 UNK         0.0793 
    126 H126      -81.3538   20.7981  -72.8602 H         1 UNK         0.0793 
    127 H127      -81.8547   24.5015  -72.6711 H         1 UNK         0.2896 
@<TRIPOS>BOND
     1    1    2 1    
     2    1   67 1    
     3    1   68 1    
     4    1   69 1    
     5    2    3 2    
     6    2    4 am   BACKBONE|DICT|INTERRES
     7    4    5 1    
     8    4   70 1    
     9    5    6 1    
    10    5   65 1    
    11    5   71 1    
    12    6    7 1    
    13    6   72 1    
    14    6   73 1    
    15    7    8 1    
    16    8    9 1    
    17    8   74 1    
    18    8   75 1    
    19    9   10 ar   
    20    9   14 ar   
    21   10   11 ar   
    22   10   76 1    
    23   11   12 ar   
    24   11   48 1    
    25   12   13 ar   
    26   12   77 1    
    27   13   14 ar   
    28   13   15 1    
    29   14   78 1    
    30   15   16 1    
    31   15   79 1    
    32   15   80 1    
    33   16   17 1    
    34   17   18 1    
    35   17   81 1    
    36   17   82 1    
    37   18   19 1    
    38   18   22 1    
    39   18   83 1    
    40   19   20 am   BACKBONE|DICT|INTERRES
    41   19   21 2    
    42   20   84 1    
    43   20   85 1    
    44   22   23 am   BACKBONE|DICT|INTERRES
    45   22   86 1    
    46   23   24 2    
    47   23   25 1    
    48   25   26 1    
    49   25   27 1    
    50   25   87 1    
    51   26   88 1    
    52   26   89 1    
    53   26   90 1    
    54   27   28 am   BACKBONE|DICT|INTERRES
    55   27   91 1    
    56   28   29 2    
    57   28   30 1    
    58   30   31 1    
    59   30   32 1    
    60   30   92 1    
    61   31   93 1    
    62   31   94 1    
    63   31   95 1    
    64   32   33 am   BACKBONE|DICT|INTERRES
    65   32   96 1    
    66   33   34 2    
    67   33   35 1    
    68   35   36 1    
    69   35   37 1    
    70   35   97 1    
    71   36   98 1    
    72   36   99 1    
    73   36  100 1    
    74   37   38 am   BACKBONE|DICT|INTERRES
    75   37  101 1    
    76   38   39 2    
    77   38   40 1    
    78   40   41 1    
    79   40   42 1    
    80   40  102 1    
    81   41  103 1    
    82   41  104 1    
    83   41  105 1    
    84   42   43 am   BACKBONE|DICT|INTERRES
    85   42  106 1    
    86   43   44 2    
    87   43   45 1    
    88   45   46 1    
    89   45   49 1    
    90   45  107 1    
    91   46   47 1    
    92   46  108 1    
    93   46  109 1    
    94   47   48 1    
    95   48  110 1    
    96   48  111 1    
    97   49   50 am   BACKBONE|DICT|INTERRES
    98   49  112 1    
    99   50   51 2    
   100   50   52 1    
   101   52   53 1    
   102   52   54 1    
   103   52  113 1    
   104   53  114 1    
   105   53  115 1    
   106   53  116 1    
   107   54   55 am   BACKBONE|DICT|INTERRES
   108   54  117 1    
   109   55   56 2    
   110   55   57 1    
   111   57   58 1    
   112   57   59 1    
   113   57  118 1    
   114   58  119 1    
   115   58  120 1    
   116   58  121 1    
   117   59   60 am   BACKBONE|DICT|INTERRES
   118   59  122 1    
   119   60   61 2    
   120   60   62 1    
   121   62   63 1    
   122   62   64 1    
   123   62  123 1    
   124   63  124 1    
   125   63  125 1    
   126   63  126 1    
   127   64   65 am   BACKBONE|DICT|INTERRES
   128   64  127 1    
   129   65   66 2    
@<TRIPOS>SUBSTRUCTURE
     1 UNK         1 GROUP             0       ****    0 ROOT    
