@<TRIPOS>MOLECULE
3R135
127   129    1
SMALL
USER_CHARGES


@<TRIPOS>ATOM
      1 CA        -74.9743   23.1050  -73.4226 C.3       0 UNK        -0.1998 
      2 C         -76.3739   23.6589  -73.2083 C.2       0 UNK         0.4909 
      3 O         -77.0951   23.8853  -74.1790 O.2       0 UNK        -0.5240 
      4 N         -76.7715   23.8480  -71.9412 N.am      1 UNK        -0.4739 
      5 CA        -78.0630   24.4086  -71.5015 C.3       1 UNK         0.0864 
      6 C6        -78.2161   25.9169  -71.8480 C.3       11 UNK        -0.0881 
      7 S7        -76.9569   26.9169  -70.9811 S.3       11 UNK        -0.2682 
      8 C8        -77.9083   28.3818  -70.4714 C.3       11 UNK         0.0289 
      9 C9        -78.0378   29.3862  -71.6066 C.ar      11 UNK        -0.0687 
     10 C10       -79.1914   29.4256  -72.3962 C.ar      11 UNK        -0.0823 
     11 C11       -79.3117   30.3638  -73.4266 C.ar      11 UNK        -0.0830 
     12 C12       -78.2640   31.2580  -73.6685 C.ar      11 UNK        -0.1021 
     13 C13       -77.1079   31.2340  -72.8828 C.ar      11 UNK        -0.0753 
     14 C14       -77.0048   30.2970  -71.8499 C.ar      11 UNK        -0.0933 
     15 C15       -76.0019   32.2542  -73.1289 C.3       11 UNK         0.0166 
     16 S16       -74.3972   31.4791  -73.5129 S.3       11 UNK        -0.2615 
     17 C17       -73.5100   31.6553  -71.9251 C.3       11 UNK        -0.0865 
     18 CA        -71.9701   31.5980  -72.1028 C.3       10 UNK         0.0862 
     19 C         -71.2391   32.0106  -70.7905 C.2       10 UNK         0.5551 
     20 N         -70.4483   31.1467  -70.1652 N.am      10 UNK        -0.7319 
     21 O         -71.3897   33.1417  -70.3354 O.2       10 UNK        -0.5018 
     22 N         -71.5468   30.3021  -72.6581 N.am      10 UNK        -0.4509 
     23 C         -70.4013   30.0757  -73.3139 C.2       10 UNK         0.4899 
     24 O         -69.5623   30.9462  -73.5474 O.2       10 UNK        -0.4839 
     25 CA        -70.1300   28.6315  -73.7775 C.3       9 UNK         0.0222 
     26 CB        -69.0426   27.9843  -72.9033 C.3       9 UNK        -0.1966 
     27 N         -71.3255   27.7809  -73.7608 N.am      9 UNK        -0.4218 
     28 C         -72.2840   27.7983  -74.6962 C.2       9 UNK         0.5020 
     29 O         -72.2562   28.5147  -75.6998 O.2       9 UNK        -0.5274 
     30 CA        -73.4920   26.8850  -74.4357 C.3       8 UNK         0.0270 
     31 CB        -74.6185   27.6602  -73.7340 C.3       8 UNK        -0.1976 
     32 N         -74.0042   26.3034  -75.6768 N.am      8 UNK        -0.4313 
     33 C         -73.3999   25.3065  -76.3404 C.2       8 UNK         0.5041 
     34 O         -72.3497   24.7835  -75.9630 O.2       8 UNK        -0.5577 
     35 CA        -74.0823   24.7504  -77.6046 C.3       7 UNK         0.0284 
     36 CB        -74.6946   23.3723  -77.3060 C.3       7 UNK        -0.1958 
     37 N         -75.1223   25.6289  -78.1433 N.am      7 UNK        -0.4454 
     38 C         -74.8839   26.7138  -78.8916 C.2       7 UNK         0.5089 
     39 O         -73.7597   27.0552  -79.2601 O.2       7 UNK        -0.5125 
     40 CA        -76.0990   27.5682  -79.3034 C.3       6 UNK         0.0408 
     41 CB        -76.5092   27.2482  -80.7497 C.3       6 UNK        -0.1791 
     42 N         -77.2796   27.4446  -78.4388 N.am      6 UNK        -0.4762 
     43 C         -77.3366   27.7092  -77.1272 C.2       6 UNK         0.5007 
     44 O         -76.3441   27.9952  -76.4605 O.2       6 UNK        -0.5032 
     45 CA        -78.7082   27.6209  -76.4242 C.3       5 UNK         0.0783 
     46 C46       -79.4156   29.0002  -76.4047 C.3       11 UNK        -0.0857 
     47 S47       -80.8660   28.9809  -75.2951 S.3       11 UNK        -0.2512 
     48 C48       -80.5892   30.4481  -74.2529 C.3       11 UNK         0.0225 
     49 N         -79.5780   26.5341  -76.9046 N.am      5 UNK        -0.4615 
     50 C         -80.1854   26.3851  -78.0892 C.2       4 UNK         0.5053 
     51 O         -79.9988   27.1366  -79.0475 O.2       4 UNK        -0.5105 
     52 CA        -81.1440   25.1804  -78.2306 C.3       4 UNK         0.0263 
     53 CB        -81.6670   25.0077  -79.6694 C.3       4 UNK        -0.1981 
     54 N         -80.5470   23.9138  -77.7898 N.am      4 UNK        -0.4224 
     55 C         -80.3310   23.5590  -76.5166 C.2       3 UNK         0.4895 
     56 O         -80.6384   24.2734  -75.5590 O.2       3 UNK        -0.5091 
     57 CA        -79.6093   22.2197  -76.2922 C.3       3 UNK         0.0250 
     58 CB        -78.2214   22.2274  -76.9569 C.3       3 UNK        -0.1996 
     59 N         -79.4401   21.9668  -74.8610 N.am      3 UNK        -0.4254 
     60 C         -80.3406   21.3463  -74.0861 C.2       2 UNK         0.5004 
     61 O         -81.3701   20.8261  -74.5196 O.2       2 UNK        -0.5226 
     62 CA        -80.0512   21.2709  -72.5749 C.3       2 UNK         0.0269 
     63 CB        -79.5823   19.8581  -72.1885 C.3       2 UNK        -0.1926 
     64 N         -79.0520   22.2416  -72.1203 N.am      2 UNK        -0.4687 
     65 C         -79.2777   23.5514  -71.9364 C.2       1 UNK         0.5165 
     66 O         -80.3878   24.0683  -72.0701 O.2       1 UNK        -0.5079 
     67 H67       -74.4968   22.8269  -72.4834 H         1 UNK         0.0900 
     68 H68       -75.0134   22.2206  -74.0580 H         1 UNK         0.0900 
     69 H69       -74.3493   23.8487  -73.9131 H         1 UNK         0.0900 
     70 H70       -76.1278   23.6334  -71.1920 H         1 UNK         0.2959 
     71 H71       -78.0631   24.3302  -70.4129 H         1 UNK         0.1079 
     72 H72       -79.2040   26.2807  -71.5620 H         1 UNK         0.0837 
     73 H73       -78.1306   26.0853  -72.9227 H         1 UNK         0.0837 
     74 H74       -78.8891   28.0857  -70.0963 H         1 UNK         0.0685 
     75 H75       -77.3961   28.8517  -69.6305 H         1 UNK         0.0685 
     76 H76       -79.9999   28.7329  -72.2062 H         1 UNK         0.1434 
     77 H77       -78.3576   31.9895  -74.4596 H         1 UNK         0.1329 
     78 H78       -76.1190   30.2742  -71.2320 H         1 UNK         0.1335 
     79 H79       -76.2645   32.9019  -73.9667 H         1 UNK         0.0680 
     80 H80       -75.9202   32.9093  -72.2612 H         1 UNK         0.0680 
     81 H81       -73.7969   32.6073  -71.4745 H         1 UNK         0.1032 
     82 H82       -73.8449   30.8780  -71.2368 H         1 UNK         0.1032 
     83 H83       -71.7019   32.3640  -72.8333 H         1 UNK         0.0461 
     84 H84       -70.3142   30.2193  -70.5331 H         1 UNK         0.3453 
     85 H85       -69.9784   31.4290  -69.3193 H         1 UNK         0.3453 
     86 H86       -72.1830   29.5325  -72.5219 H         1 UNK         0.2984 
     87 H87       -69.7536   28.6833  -74.8015 H         1 UNK         0.0554 
     88 H88       -68.1263   28.5766  -72.9168 H         1 UNK         0.0847 
     89 H89       -68.7846   26.9881  -73.2633 H         1 UNK         0.0847 
     90 H90       -69.3563   27.8952  -71.8625 H         1 UNK         0.0847 
     91 H91       -71.4241   27.1548  -72.9739 H         1 UNK         0.3141 
     92 H92       -73.1847   26.0672  -73.7805 H         1 UNK         0.0743 
     93 H93       -74.9119   28.5463  -74.2980 H         1 UNK         0.0784 
     94 H94       -75.5064   27.0408  -73.6069 H         1 UNK         0.0784 
     95 H95       -74.3116   27.9955  -72.7429 H         1 UNK         0.0784 
     96 H96       -74.8260   26.7480  -76.0748 H         1 UNK         0.3213 
     97 H97       -73.3085   24.6201  -78.3647 H         1 UNK         0.0855 
     98 H98       -75.4035   23.4223  -76.4800 H         1 UNK         0.0814 
     99 H99       -73.9210   22.6582  -77.0205 H         1 UNK         0.0814 
    100 H100      -75.2089   22.9614  -78.1750 H         1 UNK         0.0814 
    101 H101      -76.0779   25.4283  -77.8877 H         1 UNK         0.3105 
    102 H102      -75.7816   28.6121  -79.2632 H         1 UNK         0.0547 
    103 H103      -75.6651   27.3624  -81.4314 H         1 UNK         0.0837 
    104 H104      -76.8719   26.2243  -80.8478 H         1 UNK         0.0837 
    105 H105      -77.2963   27.9176  -81.0972 H         1 UNK         0.0837 
    106 H106      -78.1674   27.2495  -78.8973 H         1 UNK         0.3020 
    107 H107      -78.4773   27.3634  -75.3882 H         1 UNK         0.1245 
    108 H108      -79.7437   29.2875  -77.4049 H         1 UNK         0.0781 
    109 H109      -78.7236   29.7798  -76.0825 H         1 UNK         0.0781 
    110 H110      -81.4392   30.5635  -73.5790 H         1 UNK         0.0836 
    111 H111      -80.5856   31.3353  -74.8882 H         1 UNK         0.0836 
    112 H112      -79.8135   25.8362  -76.2026 H         1 UNK         0.3022 
    113 H113      -82.0047   25.3925  -77.5925 H         1 UNK         0.0747 
    114 H114      -82.3843   24.1895  -79.7362 H         1 UNK         0.0793 
    115 H115      -80.8574   24.8043  -80.3716 H         1 UNK         0.0793 
    116 H116      -82.1773   25.9090  -80.0118 H         1 UNK         0.0793 
    117 H117      -80.2405   23.2895  -78.5221 H         1 UNK         0.3047 
    118 H118      -80.2091   21.4235  -76.7386 H         1 UNK         0.0822 
    119 H119      -77.6372   21.3505  -76.6770 H         1 UNK         0.0807 
    120 H120      -77.6547   23.1133  -76.6730 H         1 UNK         0.0807 
    121 H121      -78.2989   22.2260  -78.0445 H         1 UNK         0.0807 
    122 H122      -78.6678   22.4509  -74.4171 H         1 UNK         0.2946 
    123 H123      -80.9922   21.4737  -72.0580 H         1 UNK         0.1144 
    124 H124      -79.4427   19.7665  -71.1111 H         1 UNK         0.0793 
    125 H125      -78.6409   19.5978  -72.6740 H         1 UNK         0.0793 
    126 H126      -80.3183   19.1082  -72.4822 H         1 UNK         0.0793 
    127 H127      -78.1120   21.8994  -71.9812 H         1 UNK         0.2896 
@<TRIPOS>BOND
     1    1    2 1    
     2    1   67 1    
     3    1   68 1    
     4    1   69 1    
     5    2    3 2    
     6    2    4 am   BACKBONE|DICT|INTERRES
     7    4    5 1    
     8    4   70 1    
     9    5    6 1    
    10    5   65 1    
    11    5   71 1    
    12    6    7 1    
    13    6   72 1    
    14    6   73 1    
    15    7    8 1    
    16    8    9 1    
    17    8   74 1    
    18    8   75 1    
    19    9   10 ar   
    20    9   14 ar   
    21   10   11 ar   
    22   10   76 1    
    23   11   12 ar   
    24   11   48 1    
    25   12   13 ar   
    26   12   77 1    
    27   13   14 ar   
    28   13   15 1    
    29   14   78 1    
    30   15   16 1    
    31   15   79 1    
    32   15   80 1    
    33   16   17 1    
    34   17   18 1    
    35   17   81 1    
    36   17   82 1    
    37   18   19 1    
    38   18   22 1    
    39   18   83 1    
    40   19   20 am   BACKBONE|DICT|INTERRES
    41   19   21 2    
    42   20   84 1    
    43   20   85 1    
    44   22   23 am   BACKBONE|DICT|INTERRES
    45   22   86 1    
    46   23   24 2    
    47   23   25 1    
    48   25   26 1    
    49   25   27 1    
    50   25   87 1    
    51   26   88 1    
    52   26   89 1    
    53   26   90 1    
    54   27   28 am   BACKBONE|DICT|INTERRES
    55   27   91 1    
    56   28   29 2    
    57   28   30 1    
    58   30   31 1    
    59   30   32 1    
    60   30   92 1    
    61   31   93 1    
    62   31   94 1    
    63   31   95 1    
    64   32   33 am   BACKBONE|DICT|INTERRES
    65   32   96 1    
    66   33   34 2    
    67   33   35 1    
    68   35   36 1    
    69   35   37 1    
    70   35   97 1    
    71   36   98 1    
    72   36   99 1    
    73   36  100 1    
    74   37   38 am   BACKBONE|DICT|INTERRES
    75   37  101 1    
    76   38   39 2    
    77   38   40 1    
    78   40   41 1    
    79   40   42 1    
    80   40  102 1    
    81   41  103 1    
    82   41  104 1    
    83   41  105 1    
    84   42   43 am   BACKBONE|DICT|INTERRES
    85   42  106 1    
    86   43   44 2    
    87   43   45 1    
    88   45   46 1    
    89   45   49 1    
    90   45  107 1    
    91   46   47 1    
    92   46  108 1    
    93   46  109 1    
    94   47   48 1    
    95   48  110 1    
    96   48  111 1    
    97   49   50 am   BACKBONE|DICT|INTERRES
    98   49  112 1    
    99   50   51 2    
   100   50   52 1    
   101   52   53 1    
   102   52   54 1    
   103   52  113 1    
   104   53  114 1    
   105   53  115 1    
   106   53  116 1    
   107   54   55 am   BACKBONE|DICT|INTERRES
   108   54  117 1    
   109   55   56 2    
   110   55   57 1    
   111   57   58 1    
   112   57   59 1    
   113   57  118 1    
   114   58  119 1    
   115   58  120 1    
   116   58  121 1    
   117   59   60 am   BACKBONE|DICT|INTERRES
   118   59  122 1    
   119   60   61 2    
   120   60   62 1    
   121   62   63 1    
   122   62   64 1    
   123   62  123 1    
   124   63  124 1    
   125   63  125 1    
   126   63  126 1    
   127   64   65 am   BACKBONE|DICT|INTERRES
   128   64  127 1    
   129   65   66 2    
@<TRIPOS>SUBSTRUCTURE
     1 UNK         1 GROUP             0       ****    0 ROOT    
