@<TRIPOS>MOLECULE
3R135
127   129    1
SMALL
USER_CHARGES


@<TRIPOS>ATOM
      1 CA        -83.6515   27.6810  -70.7012 C.3       0 UNK        -0.1998 
      2 C         -83.4833   27.9321  -72.1922 C.2       0 UNK         0.4909 
      3 O         -84.4724   27.9604  -72.9250 O.2       0 UNK        -0.5240 
      4 N         -82.2364   28.1164  -72.6449 N.am      1 UNK        -0.4739 
      5 CA        -81.8822   28.3557  -74.0497 C.3       1 UNK         0.0864 
      6 C6        -80.4408   28.9030  -74.1950 C.3       11 UNK        -0.0881 
      7 S7        -80.2268   30.5785  -73.5029 S.3       11 UNK        -0.2682 
      8 C8        -79.7277   30.2766  -71.7738 C.3       11 UNK         0.0289 
      9 C9        -78.5369   29.3360  -71.6390 C.ar      11 UNK        -0.0687 
     10 C10       -78.6758   28.1193  -70.9633 C.ar      11 UNK        -0.0823 
     11 C11       -77.5845   27.2591  -70.8082 C.ar      11 UNK        -0.0830 
     12 C12       -76.3398   27.6356  -71.3251 C.ar      11 UNK        -0.1021 
     13 C13       -76.1904   28.8422  -72.0127 C.ar      11 UNK        -0.0753 
     14 C14       -77.2919   29.6887  -72.1675 C.ar      11 UNK        -0.0933 
     15 C15       -74.8430   29.2248  -72.6002 C.3       11 UNK         0.0166 
     16 S16       -74.0709   30.5844  -71.6676 S.3       11 UNK        -0.2615 
     17 C17       -72.5558   30.8154  -72.6517 C.3       11 UNK        -0.0865 
     18 CA        -72.8350   31.5321  -74.0114 C.3       10 UNK         0.0862 
     19 C         -72.4046   33.0316  -74.0406 C.2       10 UNK         0.5551 
     20 N         -71.9940   33.5736  -75.1806 N.am      10 UNK        -0.7319 
     21 O         -72.4754   33.7249  -73.0287 O.2       10 UNK        -0.5018 
     22 N         -72.3964   30.7107  -75.1518 N.am      10 UNK        -0.4509 
     23 C         -71.1306   30.4113  -75.4680 C.2       10 UNK         0.4899 
     24 O         -70.1417   30.8598  -74.8864 O.2       10 UNK        -0.4839 
     25 CA        -70.9757   29.3890  -76.6020 C.3       9 UNK         0.0222 
     26 CB        -69.5916   29.4336  -77.2852 C.3       9 UNK        -0.1966 
     27 N         -71.3128   28.0442  -76.1207 N.am      9 UNK        -0.4218 
     28 C         -70.6357   27.2806  -75.2438 C.2       9 UNK         0.5020 
     29 O         -69.5678   27.6078  -74.7251 O.2       9 UNK        -0.5274 
     30 CA        -71.2381   25.9096  -74.8624 C.3       8 UNK         0.0270 
     31 CB        -71.6700   25.9073  -73.3862 C.3       8 UNK        -0.1976 
     32 N         -72.3746   25.5022  -75.6941 N.am      8 UNK        -0.4313 
     33 C         -72.2957   25.1821  -76.9953 C.2       8 UNK         0.5041 
     34 O         -71.2270   25.0535  -77.5938 O.2       8 UNK        -0.5577 
     35 CA        -73.6100   25.0184  -77.7865 C.3       7 UNK         0.0284 
     36 CB        -73.8356   23.5389  -78.1408 C.3       7 UNK        -0.1958 
     37 N         -74.8112   25.5447  -77.1267 N.am      7 UNK        -0.4454 
     38 C         -75.0065   26.8014  -76.6974 C.2       7 UNK         0.5089 
     39 O         -74.1946   27.7153  -76.8565 O.2       7 UNK        -0.5125 
     40 CA        -76.2884   27.0612  -75.8832 C.3       6 UNK         0.0408 
     41 CB        -77.4282   27.5148  -76.8057 C.3       6 UNK        -0.1791 
     42 N         -76.7313   25.9035  -75.0963 N.am      6 UNK        -0.4762 
     43 C         -76.0100   25.2846  -74.1471 C.2       6 UNK         0.5007 
     44 O         -74.8716   25.6276  -73.8270 O.2       6 UNK        -0.5032 
     45 CA        -76.6342   24.0287  -73.5106 C.3       5 UNK         0.0783 
     46 C46       -77.6699   24.3639  -72.4067 C.3       11 UNK        -0.0857 
     47 S47       -76.8728   24.5321  -70.7751 S.3       11 UNK        -0.2512 
     48 C48       -77.7653   25.9475  -70.0486 C.3       11 UNK         0.0225 
     49 N         -77.2104   23.1779  -74.5521 N.am      5 UNK        -0.4615 
     50 C         -76.5308   22.2377  -75.2220 C.2       4 UNK         0.5053 
     51 O         -75.3602   21.9410  -74.9844 O.2       4 UNK        -0.5105 
     52 CA        -77.2717   21.4951  -76.3495 C.3       4 UNK         0.0263 
     53 CB        -77.8128   20.1502  -75.8385 C.3       4 UNK        -0.1981 
     54 N         -78.3715   22.2625  -76.9394 N.am      4 UNK        -0.4224 
     55 C         -78.2177   23.3829  -77.6581 C.2       3 UNK         0.4895 
     56 O         -77.1272   23.8894  -77.9169 O.2       3 UNK        -0.5091 
     57 CA        -79.5042   24.0883  -78.1166 C.3       3 UNK         0.0250 
     58 CB        -80.0232   23.4671  -79.4231 C.3       3 UNK        -0.1996 
     59 N         -80.5775   24.0989  -77.1139 N.am      3 UNK        -0.4254 
     60 C         -80.4664   24.5945  -75.8735 C.2       2 UNK         0.5004 
     61 O         -79.4086   24.9983  -75.3831 O.2       2 UNK        -0.5226 
     62 CA        -81.7421   24.6288  -75.0184 C.3       2 UNK         0.0269 
     63 CB        -81.7285   23.4845  -73.9922 C.3       2 UNK        -0.1926 
     64 N         -81.8437   25.9073  -74.3131 N.am      2 UNK        -0.4687 
     65 C         -82.0401   27.0898  -74.9161 C.2       1 UNK         0.5165 
     66 O         -82.3150   27.2072  -76.1116 O.2       1 UNK        -0.5079 
     67 H67       -84.1188   26.7108  -70.5349 H         1 UNK         0.0900 
     68 H68       -84.2906   28.4467  -70.2623 H         1 UNK         0.0900 
     69 H69       -82.6979   27.6932  -70.1738 H         1 UNK         0.0900 
     70 H70       -81.4637   28.0923  -71.9982 H         1 UNK         0.2959 
     71 H71       -82.5739   29.1001  -74.4512 H         1 UNK         0.1079 
     72 H72       -79.7116   28.2126  -73.7678 H         1 UNK         0.0837 
     73 H73       -80.1786   28.9834  -75.2519 H         1 UNK         0.0837 
     74 H74       -79.4698   31.2334  -71.3179 H         1 UNK         0.0685 
     75 H75       -80.5867   29.9038  -71.2152 H         1 UNK         0.0685 
     76 H76       -79.6330   27.8451  -70.5425 H         1 UNK         0.1434 
     77 H77       -75.4858   26.9833  -71.2031 H         1 UNK         0.1329 
     78 H78       -77.1786   30.6268  -72.6937 H         1 UNK         0.1335 
     79 H79       -74.1710   28.3652  -72.6118 H         1 UNK         0.0680 
     80 H80       -74.9808   29.5203  -73.6407 H         1 UNK         0.0680 
     81 H81       -72.1075   29.8316  -72.8016 H         1 UNK         0.1032 
     82 H82       -71.8267   31.3594  -72.0484 H         1 UNK         0.1032 
     83 H83       -73.9142   31.5942  -74.1530 H         1 UNK         0.0461 
     84 H84       -71.9374   33.0169  -76.0181 H         1 UNK         0.3453 
     85 H85       -71.7271   34.5453  -75.1992 H         1 UNK         0.3453 
     86 H86       -73.1372   30.3001  -75.7030 H         1 UNK         0.2984 
     87 H87       -71.7168   29.6341  -77.3647 H         1 UNK         0.0554 
     88 H88       -69.5221   28.6984  -78.0868 H         1 UNK         0.0847 
     89 H89       -68.7765   29.2444  -76.5864 H         1 UNK         0.0847 
     90 H90       -69.4119   30.4144  -77.7266 H         1 UNK         0.0847 
     91 H91       -72.2157   27.6997  -76.4340 H         1 UNK         0.3141 
     92 H92       -70.4493   25.1650  -74.9874 H         1 UNK         0.0743 
     93 H93       -72.4326   26.6616  -73.1898 H         1 UNK         0.0784 
     94 H94       -72.0726   24.9385  -73.0895 H         1 UNK         0.0784 
     95 H95       -70.8252   26.1213  -72.7302 H         1 UNK         0.0784 
     96 H96       -73.2908   25.5658  -75.2618 H         1 UNK         0.3213 
     97 H97       -73.4863   25.5766  -78.7166 H         1 UNK         0.0855 
     98 H98       -74.0405   22.9396  -77.2531 H         1 UNK         0.0814 
     99 H99       -72.9577   23.1115  -78.6275 H         1 UNK         0.0814 
    100 H100      -74.6710   23.4178  -78.8300 H         1 UNK         0.0814 
    101 H101      -75.5816   24.8920  -77.0208 H         1 UNK         0.3105 
    102 H102      -76.0764   27.8678  -75.1792 H         1 UNK         0.0547 
    103 H103      -77.1584   28.4270  -77.3393 H         1 UNK         0.0837 
    104 H104      -77.6642   26.7570  -77.5527 H         1 UNK         0.0837 
    105 H105      -78.3369   27.7231  -76.2420 H         1 UNK         0.0837 
    106 H106      -77.6729   25.5616  -75.2828 H         1 UNK         0.3020 
    107 H107      -75.8142   23.4747  -73.0465 H         1 UNK         0.1245 
    108 H108      -78.3955   23.5545  -72.3111 H         1 UNK         0.0781 
    109 H109      -78.2539   25.2528  -72.6547 H         1 UNK         0.0781 
    110 H110      -77.4155   26.0907  -69.0255 H         1 UNK         0.0836 
    111 H111      -78.8221   25.6851  -69.9785 H         1 UNK         0.0836 
    112 H112      -78.1471   23.4176  -74.8528 H         1 UNK         0.3022 
    113 H113      -76.5435   21.2943  -77.1385 H         1 UNK         0.0747 
    114 H114      -78.2665   19.5723  -76.6439 H         1 UNK         0.0793 
    115 H115      -77.0109   19.5414  -75.4182 H         1 UNK         0.0793 
    116 H116      -78.5619   20.2862  -75.0572 H         1 UNK         0.0793 
    117 H117      -79.3083   21.9260  -76.7704 H         1 UNK         0.3047 
    118 H118      -79.2464   25.1293  -78.3193 H         1 UNK         0.0822 
    119 H119      -80.8656   24.0312  -79.8241 H         1 UNK         0.0807 
    120 H120      -80.3463   22.4349  -79.2818 H         1 UNK         0.0807 
    121 H121      -79.2461   23.4634  -80.1890 H         1 UNK         0.0807 
    122 H122      -81.4823   23.7768  -77.4269 H         1 UNK         0.2946 
    123 H123      -82.6165   24.5196  -75.6641 H         1 UNK         0.1144 
    124 H124      -81.6736   22.5145  -74.4883 H         1 UNK         0.0793 
    125 H125      -82.6342   23.4855  -73.3855 H         1 UNK         0.0793 
    126 H126      -80.8735   23.5549  -73.3183 H         1 UNK         0.0793 
    127 H127      -81.6093   25.9061  -73.3320 H         1 UNK         0.2896 
@<TRIPOS>BOND
     1    1    2 1    
     2    1   67 1    
     3    1   68 1    
     4    1   69 1    
     5    2    3 2    
     6    2    4 am   BACKBONE|DICT|INTERRES
     7    4    5 1    
     8    4   70 1    
     9    5    6 1    
    10    5   65 1    
    11    5   71 1    
    12    6    7 1    
    13    6   72 1    
    14    6   73 1    
    15    7    8 1    
    16    8    9 1    
    17    8   74 1    
    18    8   75 1    
    19    9   10 ar   
    20    9   14 ar   
    21   10   11 ar   
    22   10   76 1    
    23   11   12 ar   
    24   11   48 1    
    25   12   13 ar   
    26   12   77 1    
    27   13   14 ar   
    28   13   15 1    
    29   14   78 1    
    30   15   16 1    
    31   15   79 1    
    32   15   80 1    
    33   16   17 1    
    34   17   18 1    
    35   17   81 1    
    36   17   82 1    
    37   18   19 1    
    38   18   22 1    
    39   18   83 1    
    40   19   20 am   BACKBONE|DICT|INTERRES
    41   19   21 2    
    42   20   84 1    
    43   20   85 1    
    44   22   23 am   BACKBONE|DICT|INTERRES
    45   22   86 1    
    46   23   24 2    
    47   23   25 1    
    48   25   26 1    
    49   25   27 1    
    50   25   87 1    
    51   26   88 1    
    52   26   89 1    
    53   26   90 1    
    54   27   28 am   BACKBONE|DICT|INTERRES
    55   27   91 1    
    56   28   29 2    
    57   28   30 1    
    58   30   31 1    
    59   30   32 1    
    60   30   92 1    
    61   31   93 1    
    62   31   94 1    
    63   31   95 1    
    64   32   33 am   BACKBONE|DICT|INTERRES
    65   32   96 1    
    66   33   34 2    
    67   33   35 1    
    68   35   36 1    
    69   35   37 1    
    70   35   97 1    
    71   36   98 1    
    72   36   99 1    
    73   36  100 1    
    74   37   38 am   BACKBONE|DICT|INTERRES
    75   37  101 1    
    76   38   39 2    
    77   38   40 1    
    78   40   41 1    
    79   40   42 1    
    80   40  102 1    
    81   41  103 1    
    82   41  104 1    
    83   41  105 1    
    84   42   43 am   BACKBONE|DICT|INTERRES
    85   42  106 1    
    86   43   44 2    
    87   43   45 1    
    88   45   46 1    
    89   45   49 1    
    90   45  107 1    
    91   46   47 1    
    92   46  108 1    
    93   46  109 1    
    94   47   48 1    
    95   48  110 1    
    96   48  111 1    
    97   49   50 am   BACKBONE|DICT|INTERRES
    98   49  112 1    
    99   50   51 2    
   100   50   52 1    
   101   52   53 1    
   102   52   54 1    
   103   52  113 1    
   104   53  114 1    
   105   53  115 1    
   106   53  116 1    
   107   54   55 am   BACKBONE|DICT|INTERRES
   108   54  117 1    
   109   55   56 2    
   110   55   57 1    
   111   57   58 1    
   112   57   59 1    
   113   57  118 1    
   114   58  119 1    
   115   58  120 1    
   116   58  121 1    
   117   59   60 am   BACKBONE|DICT|INTERRES
   118   59  122 1    
   119   60   61 2    
   120   60   62 1    
   121   62   63 1    
   122   62   64 1    
   123   62  123 1    
   124   63  124 1    
   125   63  125 1    
   126   63  126 1    
   127   64   65 am   BACKBONE|DICT|INTERRES
   128   64  127 1    
   129   65   66 2    
@<TRIPOS>SUBSTRUCTURE
     1 UNK         1 GROUP             0       ****    0 ROOT    
