@<TRIPOS>MOLECULE
3R135
127   129    1
SMALL
USER_CHARGES


@<TRIPOS>ATOM
      1 CA        -83.5732   27.8620  -73.2236 C.3       0 UNK        -0.1998 
      2 C         -82.3637   27.3140  -72.4715 C.2       0 UNK         0.4909 
      3 O         -82.5264   26.4497  -71.6133 O.2       0 UNK        -0.5240 
      4 N         -81.1362   27.7761  -72.7473 N.am      1 UNK        -0.4739 
      5 CA        -80.7725   28.7815  -73.7565 C.3       1 UNK         0.0864 
      6 C6        -79.4789   29.5376  -73.3543 C.3       11 UNK        -0.0881 
      7 S7        -79.7831   30.8442  -72.1099 S.3       11 UNK        -0.2682 
      8 C8        -79.7341   29.9791  -70.5023 C.3       11 UNK         0.0289 
      9 C9        -78.4304   29.2282  -70.2785 C.ar      11 UNK        -0.0687 
     10 C10       -78.4175   27.8327  -70.3153 C.ar      11 UNK        -0.0823 
     11 C11       -77.2142   27.1283  -70.2127 C.ar      11 UNK        -0.0830 
     12 C12       -76.0264   27.8315  -69.9934 C.ar      11 UNK        -0.1021 
     13 C13       -76.0307   29.2270  -69.9136 C.ar      11 UNK        -0.0753 
     14 C14       -77.2365   29.9216  -70.0593 C.ar      11 UNK        -0.0933 
     15 C15       -74.7267   29.9827  -69.6961 C.3       11 UNK         0.0166 
     16 S16       -73.5983   29.8391  -71.1205 S.3       11 UNK        -0.2615 
     17 C17       -74.5554   30.6845  -72.4232 C.3       11 UNK        -0.0865 
     18 CA        -74.0749   30.3100  -73.8466 C.3       10 UNK         0.0862 
     19 C         -75.0673   30.8770  -74.8954 C.2       10 UNK         0.5551 
     20 N         -75.9015   30.0267  -75.4732 N.am      10 UNK        -0.7319 
     21 O         -75.0975   32.0762  -75.1618 O.2       10 UNK        -0.5018 
     22 N         -72.6942   30.7605  -74.0776 N.am      10 UNK        -0.4509 
     23 C         -71.8828   30.4842  -75.1098 C.2       10 UNK         0.4899 
     24 O         -70.7906   31.0426  -75.2113 O.2       10 UNK        -0.4839 
     25 CA        -72.2934   29.4361  -76.1746 C.3       9 UNK         0.0222 
     26 CB        -71.3669   29.4596  -77.4100 C.3       9 UNK        -0.1966 
     27 N         -72.3835   28.0691  -75.6471 N.am      9 UNK        -0.4218 
     28 C         -71.4181   27.3516  -75.0505 C.2       9 UNK         0.5020 
     29 O         -70.2990   27.7811  -74.7674 O.2       9 UNK        -0.5274 
     30 CA        -71.7454   25.8766  -74.7502 C.3       8 UNK         0.0270 
     31 CB        -72.4570   25.7478  -73.3930 C.3       8 UNK        -0.1976 
     32 N         -72.5453   25.2377  -75.8036 N.am      8 UNK        -0.4313 
     33 C         -72.1300   25.0373  -77.0654 C.2       8 UNK         0.5041 
     34 O         -70.9893   25.2847  -77.4583 O.2       8 UNK        -0.5577 
     35 CA        -73.1636   24.4948  -78.0712 C.3       7 UNK         0.0284 
     36 CB        -73.2336   22.9602  -78.0221 C.3       7 UNK        -0.1958 
     37 N         -74.4988   25.0627  -77.8683 N.am      7 UNK        -0.4454 
     38 C         -74.8118   26.3519  -78.0679 C.2       7 UNK         0.5089 
     39 O         -74.0408   27.1812  -78.5485 O.2       7 UNK        -0.5125 
     40 CA        -76.2034   26.8065  -77.5997 C.3       6 UNK         0.0408 
     41 CB        -77.2519   26.6226  -78.7072 C.3       6 UNK        -0.1791 
     42 N         -76.6140   26.1125  -76.3743 N.am      6 UNK        -0.4762 
     43 C         -76.0780   26.3612  -75.1694 C.2       6 UNK         0.5007 
     44 O         -75.2713   27.2688  -74.9731 O.2       6 UNK        -0.5032 
     45 CA        -76.4718   25.4388  -73.9991 C.3       5 UNK         0.0783 
     46 C46       -77.6195   26.0653  -73.1838 C.3       11 UNK        -0.0857 
     47 S47       -78.1870   25.0198  -71.7949 S.3       11 UNK        -0.2512 
     48 C48       -77.1790   25.6141  -70.3894 C.3       11 UNK         0.0225 
     49 N         -76.7770   24.0853  -74.4615 N.am      5 UNK        -0.4615 
     50 C         -75.8406   23.2038  -74.8328 C.2       4 UNK         0.5053 
     51 O         -74.6350   23.4468  -74.8007 O.2       4 UNK        -0.5105 
     52 CA        -76.3236   21.8488  -75.3791 C.3       4 UNK         0.0263 
     53 CB        -76.4341   20.8222  -74.2415 C.3       4 UNK        -0.1981 
     54 N         -77.6030   21.9306  -76.0901 N.am      4 UNK        -0.4224 
     55 C         -77.8288   22.6872  -77.1730 C.2       3 UNK         0.4895 
     56 O         -76.9584   23.3697  -77.7154 O.2       3 UNK        -0.5091 
     57 CA        -79.2665   22.7380  -77.7225 C.3       3 UNK         0.0250 
     58 CB        -80.2087   21.6640  -77.1306 C.3       3 UNK        -0.1996 
     59 N         -79.8607   24.0744  -77.5773 N.am      3 UNK        -0.4254 
     60 C         -80.0299   24.7667  -76.4400 C.2       2 UNK         0.5004 
     61 O         -79.6522   24.3791  -75.3311 O.2       2 UNK        -0.5226 
     62 CA        -80.7548   26.1141  -76.5709 C.3       2 UNK         0.0269 
     63 CB        -82.2277   25.9164  -76.9783 C.3       2 UNK        -0.1926 
     64 N         -80.7079   26.8435  -75.3034 N.am      2 UNK        -0.4687 
     65 C         -80.6739   28.1777  -75.1786 C.2       1 UNK         0.5165 
     66 O         -80.6099   28.9395  -76.1438 O.2       1 UNK        -0.5079 
     67 H67       -83.4696   27.7169  -74.2982 H         1 UNK         0.0900 
     68 H68       -84.4816   27.3483  -72.9091 H         1 UNK         0.0900 
     69 H69       -83.7078   28.9238  -73.0197 H         1 UNK         0.0900 
     70 H70       -80.3595   27.3795  -72.2408 H         1 UNK         0.2959 
     71 H71       -81.5702   29.5238  -73.8197 H         1 UNK         0.1079 
     72 H72       -79.0453   30.0483  -74.2169 H         1 UNK         0.0837 
     73 H73       -78.7045   28.8558  -73.0072 H         1 UNK         0.0837 
     74 H74       -80.5899   29.3066  -70.4318 H         1 UNK         0.0685 
     75 H75       -79.8630   30.7139  -69.7064 H         1 UNK         0.0685 
     76 H76       -79.3400   27.2914  -70.4705 H         1 UNK         0.1434 
     77 H77       -75.0888   27.2985  -69.9098 H         1 UNK         0.1329 
     78 H78       -77.2465   31.0026  -70.0259 H         1 UNK         0.1335 
     79 H79       -74.9158   31.0385  -69.4951 H         1 UNK         0.0680 
     80 H80       -74.2283   29.5864  -68.8103 H         1 UNK         0.0680 
     81 H81       -74.5012   31.7629  -72.2614 H         1 UNK         0.1032 
     82 H82       -75.6066   30.4138  -72.3114 H         1 UNK         0.1032 
     83 H83       -74.0760   29.2231  -73.9088 H         1 UNK         0.0461 
     84 H84       -75.8315   29.0338  -75.2732 H         1 UNK         0.3453 
     85 H85       -76.5663   30.3671  -76.1488 H         1 UNK         0.3453 
     86 H86       -72.3627   31.4301  -73.4003 H         1 UNK         0.2984 
     87 H87       -73.2844   29.6922  -76.5429 H         1 UNK         0.0554 
     88 H88       -71.3490   30.4501  -77.8660 H         1 UNK         0.0847 
     89 H89       -71.7080   28.7585  -78.1721 H         1 UNK         0.0847 
     90 H90       -70.3390   29.1992  -77.1554 H         1 UNK         0.0847 
     91 H91       -73.2862   27.6220  -75.7568 H         1 UNK         0.3141 
     92 H92       -70.7999   25.3336  -74.6879 H         1 UNK         0.0743 
     93 H93       -71.8216   26.1200  -72.5882 H         1 UNK         0.0784 
     94 H94       -73.3810   26.3240  -73.3617 H         1 UNK         0.0784 
     95 H95       -72.6961   24.7094  -73.1629 H         1 UNK         0.0784 
     96 H96       -73.4593   24.8851  -75.5374 H         1 UNK         0.3213 
     97 H97       -72.8319   24.7839  -79.0709 H         1 UNK         0.0855 
     98 H98       -73.5222   22.5959  -77.0369 H         1 UNK         0.0814 
     99 H99       -72.2629   22.5215  -78.2568 H         1 UNK         0.0814 
    100 H100      -73.9494   22.5711  -78.7466 H         1 UNK         0.0814 
    101 H101      -75.2299   24.4362  -77.5472 H         1 UNK         0.3105 
    102 H102      -76.1421   27.8754  -77.3858 H         1 UNK         0.0547 
    103 H103      -77.4101   25.5749  -78.9597 H         1 UNK         0.0837 
    104 H104      -76.9397   27.1295  -79.6212 H         1 UNK         0.0837 
    105 H105      -78.2092   27.0525  -78.4181 H         1 UNK         0.0837 
    106 H106      -77.2158   25.3071  -76.4816 H         1 UNK         0.3020 
    107 H107      -75.6041   25.3779  -73.3386 H         1 UNK         0.1245 
    108 H108      -78.4811   26.2488  -73.8238 H         1 UNK         0.0781 
    109 H109      -77.3107   27.0427  -72.8150 H         1 UNK         0.0781 
    110 H110      -76.1542   25.2693  -70.5360 H         1 UNK         0.0836 
    111 H111      -77.5360   25.1423  -69.4732 H         1 UNK         0.0836 
    112 H112      -77.7604   23.8479  -74.5403 H         1 UNK         0.3022 
    113 H113      -75.5737   21.4953  -76.0896 H         1 UNK         0.0747 
    114 H114      -76.6933   19.8338  -74.6213 H         1 UNK         0.0793 
    115 H115      -75.4854   20.7250  -73.7114 H         1 UNK         0.0793 
    116 H116      -77.1887   21.1109  -73.5085 H         1 UNK         0.0793 
    117 H117      -78.3801   21.4235  -75.6919 H         1 UNK         0.3047 
    118 H118      -79.1831   22.5481  -78.7937 H         1 UNK         0.0822 
    119 H119      -81.1802   21.6872  -77.6247 H         1 UNK         0.0807 
    120 H120      -80.3847   21.8059  -76.0636 H         1 UNK         0.0807 
    121 H121      -79.8062   20.6602  -77.2744 H         1 UNK         0.0807 
    122 H122      -80.1816   24.4924  -78.4396 H         1 UNK         0.2946 
    123 H123      -80.2429   26.6914  -77.3428 H         1 UNK         0.1144 
    124 H124      -82.7405   26.8723  -77.0869 H         1 UNK         0.0793 
    125 H125      -82.7727   25.3285  -76.2385 H         1 UNK         0.0793 
    126 H126      -82.3137   25.3992  -77.9346 H         1 UNK         0.0793 
    127 H127      -80.7003   26.2613  -74.4754 H         1 UNK         0.2896 
@<TRIPOS>BOND
     1    1    2 1    
     2    1   67 1    
     3    1   68 1    
     4    1   69 1    
     5    2    3 2    
     6    2    4 am   BACKBONE|DICT|INTERRES
     7    4    5 1    
     8    4   70 1    
     9    5    6 1    
    10    5   65 1    
    11    5   71 1    
    12    6    7 1    
    13    6   72 1    
    14    6   73 1    
    15    7    8 1    
    16    8    9 1    
    17    8   74 1    
    18    8   75 1    
    19    9   10 ar   
    20    9   14 ar   
    21   10   11 ar   
    22   10   76 1    
    23   11   12 ar   
    24   11   48 1    
    25   12   13 ar   
    26   12   77 1    
    27   13   14 ar   
    28   13   15 1    
    29   14   78 1    
    30   15   16 1    
    31   15   79 1    
    32   15   80 1    
    33   16   17 1    
    34   17   18 1    
    35   17   81 1    
    36   17   82 1    
    37   18   19 1    
    38   18   22 1    
    39   18   83 1    
    40   19   20 am   BACKBONE|DICT|INTERRES
    41   19   21 2    
    42   20   84 1    
    43   20   85 1    
    44   22   23 am   BACKBONE|DICT|INTERRES
    45   22   86 1    
    46   23   24 2    
    47   23   25 1    
    48   25   26 1    
    49   25   27 1    
    50   25   87 1    
    51   26   88 1    
    52   26   89 1    
    53   26   90 1    
    54   27   28 am   BACKBONE|DICT|INTERRES
    55   27   91 1    
    56   28   29 2    
    57   28   30 1    
    58   30   31 1    
    59   30   32 1    
    60   30   92 1    
    61   31   93 1    
    62   31   94 1    
    63   31   95 1    
    64   32   33 am   BACKBONE|DICT|INTERRES
    65   32   96 1    
    66   33   34 2    
    67   33   35 1    
    68   35   36 1    
    69   35   37 1    
    70   35   97 1    
    71   36   98 1    
    72   36   99 1    
    73   36  100 1    
    74   37   38 am   BACKBONE|DICT|INTERRES
    75   37  101 1    
    76   38   39 2    
    77   38   40 1    
    78   40   41 1    
    79   40   42 1    
    80   40  102 1    
    81   41  103 1    
    82   41  104 1    
    83   41  105 1    
    84   42   43 am   BACKBONE|DICT|INTERRES
    85   42  106 1    
    86   43   44 2    
    87   43   45 1    
    88   45   46 1    
    89   45   49 1    
    90   45  107 1    
    91   46   47 1    
    92   46  108 1    
    93   46  109 1    
    94   47   48 1    
    95   48  110 1    
    96   48  111 1    
    97   49   50 am   BACKBONE|DICT|INTERRES
    98   49  112 1    
    99   50   51 2    
   100   50   52 1    
   101   52   53 1    
   102   52   54 1    
   103   52  113 1    
   104   53  114 1    
   105   53  115 1    
   106   53  116 1    
   107   54   55 am   BACKBONE|DICT|INTERRES
   108   54  117 1    
   109   55   56 2    
   110   55   57 1    
   111   57   58 1    
   112   57   59 1    
   113   57  118 1    
   114   58  119 1    
   115   58  120 1    
   116   58  121 1    
   117   59   60 am   BACKBONE|DICT|INTERRES
   118   59  122 1    
   119   60   61 2    
   120   60   62 1    
   121   62   63 1    
   122   62   64 1    
   123   62  123 1    
   124   63  124 1    
   125   63  125 1    
   126   63  126 1    
   127   64   65 am   BACKBONE|DICT|INTERRES
   128   64  127 1    
   129   65   66 2    
@<TRIPOS>SUBSTRUCTURE
     1 UNK         1 GROUP             0       ****    0 ROOT    
