@<TRIPOS>MOLECULE
3R135
127   129    1
SMALL
USER_CHARGES


@<TRIPOS>ATOM
      1 CA        -77.2404   25.9908  -72.5691 C.3       0 UNK        -0.1998 
      2 C         -78.4716   25.4300  -71.8739 C.2       0 UNK         0.4909 
      3 O         -78.5497   24.2232  -71.6461 O.2       0 UNK        -0.5240 
      4 N         -79.4345   26.2920  -71.5229 N.am      1 UNK        -0.4739 
      5 CA        -80.6998   25.8918  -70.8908 C.3       1 UNK         0.0864 
      6 C6        -81.4109   27.0466  -70.1356 C.3       11 UNK        -0.0881 
      7 S7        -80.3123   28.0369  -69.0666 S.3       11 UNK        -0.2682 
      8 C8        -80.3502   29.6501  -69.9154 C.3       11 UNK         0.0289 
      9 C9        -79.5090   29.6495  -71.1849 C.ar      11 UNK        -0.0687 
     10 C10       -80.0784   29.3341  -72.4235 C.ar      11 UNK        -0.0823 
     11 C11       -79.2998   29.3321  -73.5863 C.ar      11 UNK        -0.0830 
     12 C12       -77.9501   29.6926  -73.5082 C.ar      11 UNK        -0.1021 
     13 C13       -77.3755   30.0243  -72.2777 C.ar      11 UNK        -0.0753 
     14 C14       -78.1558   29.9889  -71.1197 C.ar      11 UNK        -0.0933 
     15 C15       -75.9196   30.4493  -72.1929 C.3       11 UNK         0.0166 
     16 S16       -74.8257   29.0313  -71.8832 S.3       11 UNK        -0.2615 
     17 C17       -73.3444   29.8917  -71.2449 C.3       11 UNK        -0.0865 
     18 CA        -72.6138   30.7601  -72.3043 C.3       10 UNK         0.0862 
     19 C         -71.4174   31.5300  -71.6738 C.2       10 UNK         0.5551 
     20 N         -70.1850   31.3354  -72.1277 N.am      10 UNK        -0.7319 
     21 O         -71.6149   32.3267  -70.7597 O.2       10 UNK        -0.5018 
     22 N         -72.2660   29.9715  -73.4933 N.am      10 UNK        -0.4509 
     23 C         -72.1402   30.4413  -74.7371 C.2       10 UNK         0.4899 
     24 O         -72.2998   31.6247  -75.0375 O.2       10 UNK        -0.4839 
     25 CA        -71.7975   29.4311  -75.8494 C.3       9 UNK         0.0222 
     26 CB        -70.2987   29.4832  -76.2030 C.3       9 UNK        -0.1966 
     27 N         -72.2394   28.0487  -75.6058 N.am      9 UNK        -0.4218 
     28 C         -71.8153   27.1692  -74.6844 C.2       9 UNK         0.5020 
     29 O         -70.9851   27.4296  -73.8129 O.2       9 UNK        -0.5274 
     30 CA        -72.4380   25.7641  -74.7275 C.3       8 UNK         0.0270 
     31 CB        -73.7616   25.7410  -73.9452 C.3       8 UNK        -0.1976 
     32 N         -72.6635   25.2809  -76.0918 N.am      8 UNK        -0.4313 
     33 C         -71.6980   25.0276  -76.9885 C.2       8 UNK         0.5041 
     34 O         -70.4933   25.1146  -76.7475 O.2       8 UNK        -0.5577 
     35 CA        -72.1532   24.6221  -78.3980 C.3       7 UNK         0.0284 
     36 CB        -72.4714   23.1195  -78.4587 C.3       7 UNK        -0.1958 
     37 N         -73.3220   25.3959  -78.8210 N.am      7 UNK        -0.4454 
     38 C         -73.2579   26.6192  -79.3652 C.2       7 UNK         0.5089 
     39 O         -72.2038   27.1942  -79.6369 O.2       7 UNK        -0.5125 
     40 CA        -74.5933   27.3300  -79.6552 C.3       6 UNK         0.0408 
     41 CB        -75.0472   27.0492  -81.0963 C.3       6 UNK        -0.1791 
     42 N         -75.6684   26.9640  -78.7282 N.am      6 UNK        -0.4762 
     43 C         -75.6911   27.2823  -77.4254 C.2       6 UNK         0.5007 
     44 O         -74.8061   27.9288  -76.8658 O.2       6 UNK        -0.5032 
     45 CA        -76.8771   26.7457  -76.5972 C.3       5 UNK         0.0783 
     46 C46       -78.0633   27.7370  -76.6592 C.3       11 UNK        -0.0857 
     47 S47       -79.4056   27.3122  -75.4961 S.3       11 UNK        -0.2512 
     48 C48       -79.9284   28.9641  -74.9242 C.3       11 UNK         0.0225 
     49 N         -77.2749   25.3813  -76.9767 N.am      5 UNK        -0.4615 
     50 C         -76.4720   24.3063  -76.9853 C.2       4 UNK         0.5053 
     51 O         -75.2655   24.3657  -76.7434 O.2       4 UNK        -0.5105 
     52 CA        -77.1091   22.9485  -77.3533 C.3       4 UNK         0.0263 
     53 CB        -76.2913   21.7536  -76.8177 C.3       4 UNK        -0.1981 
     54 N         -78.5204   22.8144  -76.9625 N.am      4 UNK        -0.4224 
     55 C         -79.0213   22.9260  -75.7238 C.2       3 UNK         0.4895 
     56 O         -78.3549   23.2044  -74.7268 O.2       3 UNK        -0.5091 
     57 CA        -80.5258   22.6986  -75.5698 C.3       3 UNK         0.0250 
     58 CB        -80.8235   21.3928  -74.8119 C.3       3 UNK        -0.1996 
     59 N         -81.0655   23.8390  -74.8416 N.am      3 UNK        -0.4254 
     60 C         -82.2974   24.3374  -74.9854 C.2       2 UNK         0.5004 
     61 O         -83.1598   23.8217  -75.6990 O.2       2 UNK        -0.5226 
     62 CA        -82.6080   25.6534  -74.2477 C.3       2 UNK         0.0269 
     63 CB        -84.0939   25.7813  -73.8467 C.3       2 UNK        -0.1926 
     64 N         -81.7200   25.9295  -73.1094 N.am      2 UNK        -0.4687 
     65 C         -81.6675   25.2907  -71.9288 C.2       1 UNK         0.5165 
     66 O         -82.3432   24.3033  -71.6384 O.2       1 UNK        -0.5079 
     67 H67       -76.3677   25.9018  -71.9229 H         1 UNK         0.0900 
     68 H68       -77.3634   27.0402  -72.8308 H         1 UNK         0.0900 
     69 H69       -77.0461   25.4335  -73.4853 H         1 UNK         0.0900 
     70 H70       -79.3023   27.2843  -71.6701 H         1 UNK         0.2959 
     71 H71       -80.4777   25.1107  -70.1597 H         1 UNK         0.1079 
     72 H72       -81.9293   27.7123  -70.8266 H         1 UNK         0.0837 
     73 H73       -82.1963   26.6332  -69.4999 H         1 UNK         0.0837 
     74 H74       -81.3808   29.9314  -70.1372 H         1 UNK         0.0685 
     75 H75       -79.9756   30.4110  -69.2289 H         1 UNK         0.0685 
     76 H76       -81.1301   29.0914  -72.4832 H         1 UNK         0.1434 
     77 H77       -77.3424   29.7153  -74.4013 H         1 UNK         0.1329 
     78 H78       -77.7109   30.2394  -70.1661 H         1 UNK         0.1335 
     79 H79       -75.6170   30.9406  -73.1189 H         1 UNK         0.0680 
     80 H80       -75.8004   31.1880  -71.3988 H         1 UNK         0.0680 
     81 H81       -72.6646   29.1359  -70.8471 H         1 UNK         0.1032 
     82 H82       -73.6457   30.4999  -70.3896 H         1 UNK         0.1032 
     83 H83       -73.3111   31.5368  -72.6218 H         1 UNK         0.0461 
     84 H84       -69.4180   31.8426  -71.7152 H         1 UNK         0.3453 
     85 H85       -70.0175   30.6807  -72.8747 H         1 UNK         0.3453 
     86 H86       -72.0361   28.9960  -73.3378 H         1 UNK         0.2984 
     87 H87       -72.3520   29.7531  -76.7322 H         1 UNK         0.0554 
     88 H88       -70.0687   28.8278  -77.0433 H         1 UNK         0.0847 
     89 H89       -69.6695   29.1854  -75.3639 H         1 UNK         0.0847 
     90 H90       -70.0007   30.4930  -76.4884 H         1 UNK         0.0847 
     91 H91       -73.0232   27.7621  -76.1877 H         1 UNK         0.3141 
     92 H92       -71.7416   25.0758  -74.2442 H         1 UNK         0.0743 
     93 H93       -73.6031   26.0237  -72.9035 H         1 UNK         0.0784 
     94 H94       -74.4878   26.4394  -74.3609 H         1 UNK         0.0784 
     95 H95       -74.2112   24.7477  -73.9482 H         1 UNK         0.0784 
     96 H96       -73.6288   25.0948  -76.3582 H         1 UNK         0.3213 
     97 H97       -71.3280   24.8172  -79.0869 H         1 UNK         0.0855 
     98 H98       -73.2600   22.8430  -77.7597 H         1 UNK         0.0814 
     99 H99       -71.5914   22.5274  -78.2040 H         1 UNK         0.0814 
    100 H100      -72.7859   22.8192  -79.4583 H         1 UNK         0.0814 
    101 H101      -74.2287   25.0228  -78.5726 H         1 UNK         0.3105 
    102 H102      -74.4198   28.4040  -79.5581 H         1 UNK         0.0547 
    103 H103      -74.2753   27.3384  -81.8111 H         1 UNK         0.0837 
    104 H104      -75.2579   25.9910  -81.2563 H         1 UNK         0.0837 
    105 H105      -75.9452   27.6137  -81.3478 H         1 UNK         0.0837 
    106 H106      -76.4341   26.4224  -79.1033 H         1 UNK         0.3020 
    107 H107      -76.5334   26.6989  -75.5626 H         1 UNK         0.1245 
    108 H108      -78.4837   27.7715  -77.6661 H         1 UNK         0.0781 
    109 H109      -77.7164   28.7492  -76.4464 H         1 UNK         0.0781 
    110 H110      -81.0165   28.9671  -74.8430 H         1 UNK         0.0836 
    111 H111      -79.6898   29.7237  -75.6699 H         1 UNK         0.0836 
    112 H112      -78.2556   25.2477  -77.1741 H         1 UNK         0.3022 
    113 H113      -77.0889   22.8970  -78.4428 H         1 UNK         0.0747 
    114 H114      -76.7552   20.8035  -77.0823 H         1 UNK         0.0793 
    115 H115      -75.2850   21.7449  -77.2357 H         1 UNK         0.0793 
    116 H116      -76.1920   21.7877  -75.7321 H         1 UNK         0.0793 
    117 H117      -79.1586   22.5986  -77.7166 H         1 UNK         0.3047 
    118 H118      -80.9827   22.6485  -76.5609 H         1 UNK         0.0822 
    119 H119      -81.8966   21.2252  -74.7173 H         1 UNK         0.0807 
    120 H120      -80.3976   21.4058  -73.8075 H         1 UNK         0.0807 
    121 H121      -80.4042   20.5328  -75.3355 H         1 UNK         0.0807 
    122 H122      -80.4022   24.3197  -74.2469 H         1 UNK         0.2946 
    123 H123      -82.4070   26.4400  -74.9769 H         1 UNK         0.1144 
    124 H124      -84.7400   25.7499  -74.7249 H         1 UNK         0.0793 
    125 H125      -84.2888   26.7258  -73.3387 H         1 UNK         0.0793 
    126 H126      -84.4086   24.9724  -73.1870 H         1 UNK         0.0793 
    127 H127      -81.0684   26.6888  -73.2489 H         1 UNK         0.2896 
@<TRIPOS>BOND
     1    1    2 1    
     2    1   67 1    
     3    1   68 1    
     4    1   69 1    
     5    2    3 2    
     6    2    4 am   BACKBONE|DICT|INTERRES
     7    4    5 1    
     8    4   70 1    
     9    5    6 1    
    10    5   65 1    
    11    5   71 1    
    12    6    7 1    
    13    6   72 1    
    14    6   73 1    
    15    7    8 1    
    16    8    9 1    
    17    8   74 1    
    18    8   75 1    
    19    9   10 ar   
    20    9   14 ar   
    21   10   11 ar   
    22   10   76 1    
    23   11   12 ar   
    24   11   48 1    
    25   12   13 ar   
    26   12   77 1    
    27   13   14 ar   
    28   13   15 1    
    29   14   78 1    
    30   15   16 1    
    31   15   79 1    
    32   15   80 1    
    33   16   17 1    
    34   17   18 1    
    35   17   81 1    
    36   17   82 1    
    37   18   19 1    
    38   18   22 1    
    39   18   83 1    
    40   19   20 am   BACKBONE|DICT|INTERRES
    41   19   21 2    
    42   20   84 1    
    43   20   85 1    
    44   22   23 am   BACKBONE|DICT|INTERRES
    45   22   86 1    
    46   23   24 2    
    47   23   25 1    
    48   25   26 1    
    49   25   27 1    
    50   25   87 1    
    51   26   88 1    
    52   26   89 1    
    53   26   90 1    
    54   27   28 am   BACKBONE|DICT|INTERRES
    55   27   91 1    
    56   28   29 2    
    57   28   30 1    
    58   30   31 1    
    59   30   32 1    
    60   30   92 1    
    61   31   93 1    
    62   31   94 1    
    63   31   95 1    
    64   32   33 am   BACKBONE|DICT|INTERRES
    65   32   96 1    
    66   33   34 2    
    67   33   35 1    
    68   35   36 1    
    69   35   37 1    
    70   35   97 1    
    71   36   98 1    
    72   36   99 1    
    73   36  100 1    
    74   37   38 am   BACKBONE|DICT|INTERRES
    75   37  101 1    
    76   38   39 2    
    77   38   40 1    
    78   40   41 1    
    79   40   42 1    
    80   40  102 1    
    81   41  103 1    
    82   41  104 1    
    83   41  105 1    
    84   42   43 am   BACKBONE|DICT|INTERRES
    85   42  106 1    
    86   43   44 2    
    87   43   45 1    
    88   45   46 1    
    89   45   49 1    
    90   45  107 1    
    91   46   47 1    
    92   46  108 1    
    93   46  109 1    
    94   47   48 1    
    95   48  110 1    
    96   48  111 1    
    97   49   50 am   BACKBONE|DICT|INTERRES
    98   49  112 1    
    99   50   51 2    
   100   50   52 1    
   101   52   53 1    
   102   52   54 1    
   103   52  113 1    
   104   53  114 1    
   105   53  115 1    
   106   53  116 1    
   107   54   55 am   BACKBONE|DICT|INTERRES
   108   54  117 1    
   109   55   56 2    
   110   55   57 1    
   111   57   58 1    
   112   57   59 1    
   113   57  118 1    
   114   58  119 1    
   115   58  120 1    
   116   58  121 1    
   117   59   60 am   BACKBONE|DICT|INTERRES
   118   59  122 1    
   119   60   61 2    
   120   60   62 1    
   121   62   63 1    
   122   62   64 1    
   123   62  123 1    
   124   63  124 1    
   125   63  125 1    
   126   63  126 1    
   127   64   65 am   BACKBONE|DICT|INTERRES
   128   64  127 1    
   129   65   66 2    
@<TRIPOS>SUBSTRUCTURE
     1 UNK         1 GROUP             0       ****    0 ROOT    
