@<TRIPOS>MOLECULE
3R135
127   129    1
SMALL
USER_CHARGES


@<TRIPOS>ATOM
      1 CA        -82.0771   28.3294  -75.2157 C.3       0 UNK        -0.1998 
      2 C         -81.3040   27.2480  -74.4785 C.2       0 UNK         0.4909 
      3 O         -80.2868   26.7706  -74.9835 O.2       0 UNK        -0.5240 
      4 N         -81.7734   26.8537  -73.2876 N.am      1 UNK        -0.4739 
      5 CA        -81.1185   25.8618  -72.4230 C.3       1 UNK         0.0864 
      6 C6        -81.7255   25.8131  -71.0021 C.3       11 UNK        -0.0881 
      7 S7        -81.7737   27.4401  -70.1800 S.3       11 UNK        -0.2682 
      8 C8        -80.0832   27.5751  -69.4977 C.3       11 UNK         0.0289 
      9 C9        -79.0736   28.3232  -70.3737 C.ar      11 UNK        -0.0687 
     10 C10       -79.4632   29.2903  -71.3123 C.ar      11 UNK        -0.0823 
     11 C11       -78.5077   30.0341  -72.0124 C.ar      11 UNK        -0.0830 
     12 C12       -77.1542   29.8227  -71.7462 C.ar      11 UNK        -0.1021 
     13 C13       -76.7394   28.8297  -70.8568 C.ar      11 UNK        -0.0753 
     14 C14       -77.7080   28.0879  -70.1720 C.ar      11 UNK        -0.0933 
     15 C15       -75.2541   28.5787  -70.6046 C.3       11 UNK         0.0166 
     16 S16       -74.3011   28.3102  -72.1403 S.3       11 UNK        -0.2615 
     17 C17       -73.8334   30.0175  -72.6139 C.3       11 UNK        -0.0865 
     18 CA        -72.3763   30.1602  -73.1182 C.3       10 UNK         0.0862 
     19 C         -71.3214   29.8493  -72.0137 C.2       10 UNK         0.5551 
     20 N         -70.4488   28.8606  -72.1756 N.am      10 UNK        -0.7319 
     21 O         -71.2878   30.5335  -70.9937 O.2       10 UNK        -0.5018 
     22 N         -72.1890   29.4409  -74.3839 N.am      10 UNK        -0.4509 
     23 C         -71.2202   29.6889  -75.2735 C.2       10 UNK         0.4899 
     24 O         -70.4368   30.6356  -75.1816 O.2       10 UNK        -0.4839 
     25 CA        -71.1036   28.7084  -76.4596 C.3       9 UNK         0.0222 
     26 CB        -69.6795   28.6637  -77.0516 C.3       9 UNK        -0.1966 
     27 N         -71.5725   27.3488  -76.1564 N.am      9 UNK        -0.4218 
     28 C         -71.1453   26.5358  -75.1744 C.2       9 UNK         0.5020 
     29 O         -70.2638   26.8452  -74.3708 O.2       9 UNK        -0.5274 
     30 CA        -71.8298   25.1642  -75.0299 C.3       8 UNK         0.0270 
     31 CB        -72.4064   24.9853  -73.6140 C.3       8 UNK        -0.1976 
     32 N         -72.8973   24.9683  -76.0164 N.am      8 UNK        -0.4313 
     33 C         -72.7197   24.3693  -77.2016 C.2       8 UNK         0.5041 
     34 O         -71.6533   23.8660  -77.5579 O.2       8 UNK        -0.5577 
     35 CA        -73.9124   24.3348  -78.1713 C.3       7 UNK         0.0284 
     36 CB        -74.7577   23.0705  -77.9497 C.3       7 UNK        -0.1958 
     37 N         -74.7749   25.5210  -78.1375 N.am      7 UNK        -0.4454 
     38 C         -74.3903   26.7555  -78.4953 C.2       7 UNK         0.5089 
     39 O         -73.2216   27.0679  -78.7205 O.2       7 UNK        -0.5125 
     40 CA        -75.4915   27.8174  -78.6373 C.3       6 UNK         0.0408 
     41 CB        -76.3848   27.5194  -79.8530 C.3       6 UNK        -0.1791 
     42 N         -76.3142   27.8850  -77.4342 N.am      6 UNK        -0.4762 
     43 C         -76.0725   28.6900  -76.3888 C.2       6 UNK         0.5007 
     44 O         -75.1783   29.5366  -76.3653 O.2       6 UNK        -0.5032 
     45 CA        -76.9519   28.4701  -75.1375 C.3       5 UNK         0.0783 
     46 C46       -78.2278   29.3518  -75.1702 C.3       11 UNK        -0.0857 
     47 S47       -77.9501   31.0535  -74.5776 S.3       11 UNK        -0.2512 
     48 C48       -78.9405   31.0811  -73.0369 C.3       11 UNK         0.0225 
     49 N         -77.2879   27.0559  -74.9268 N.am      5 UNK        -0.4615 
     50 C         -76.3937   26.0623  -74.8028 C.2       4 UNK         0.5053 
     51 O         -75.1751   26.2209  -74.8524 O.2       4 UNK        -0.5105 
     52 CA        -76.9397   24.6338  -74.6711 C.3       4 UNK         0.0263 
     53 CB        -77.0944   24.2727  -73.1874 C.3       4 UNK        -0.1981 
     54 N         -78.1977   24.4098  -75.3956 N.am      4 UNK        -0.4224 
     55 C         -78.3551   24.5706  -76.7208 C.2       3 UNK         0.4895 
     56 O         -77.4430   24.9323  -77.4668 O.2       3 UNK        -0.5091 
     57 CA        -79.7516   24.3636  -77.3347 C.3       3 UNK         0.0250 
     58 CB        -79.7181   23.3856  -78.5276 C.3       3 UNK        -0.1996 
     59 N         -80.8067   24.0312  -76.3696 N.am      3 UNK        -0.4254 
     60 C         -81.0471   22.8723  -75.7383 C.2       2 UNK         0.5004 
     61 O         -80.4002   21.8381  -75.9075 O.2       2 UNK        -0.5226 
     62 CA        -82.1953   22.9191  -74.7079 C.3       2 UNK         0.0269 
     63 CB        -82.3054   21.6353  -73.8566 C.3       2 UNK        -0.1926 
     64 N         -82.1118   24.1187  -73.8586 N.am      2 UNK        -0.4687 
     65 C         -81.0958   24.4498  -73.0438 C.2       1 UNK         0.5165 
     66 O         -80.1424   23.7105  -72.8096 O.2       1 UNK        -0.5079 
     67 H67       -81.4491   29.2086  -75.3557 H         1 UNK         0.0900 
     68 H68       -82.3817   27.9686  -76.1975 H         1 UNK         0.0900 
     69 H69       -82.9712   28.6334  -74.6720 H         1 UNK         0.0900 
     70 H70       -82.6018   27.2873  -72.9045 H         1 UNK         0.2959 
     71 H71       -80.0750   26.1706  -72.3247 H         1 UNK         0.1079 
     72 H72       -82.7495   25.4361  -71.0417 H         1 UNK         0.0837 
     73 H73       -81.1752   25.1129  -70.3702 H         1 UNK         0.0837 
     74 H74       -80.1512   28.1075  -68.5483 H         1 UNK         0.0685 
     75 H75       -79.7085   26.5791  -69.2577 H         1 UNK         0.0685 
     76 H76       -80.5114   29.4880  -71.4851 H         1 UNK         0.1434 
     77 H77       -76.4236   30.4286  -72.2557 H         1 UNK         0.1329 
     78 H78       -77.3970   27.3429  -69.4522 H         1 UNK         0.1335 
     79 H79       -74.8329   29.4079  -70.0352 H         1 UNK         0.0680 
     80 H80       -75.1274   27.6916  -69.9824 H         1 UNK         0.0680 
     81 H81       -74.5095   30.3516  -73.4024 H         1 UNK         0.1032 
     82 H82       -73.9996   30.6963  -71.7757 H         1 UNK         0.1032 
     83 H83       -72.2386   31.2192  -73.3457 H         1 UNK         0.0461 
     84 H84       -69.7717   28.6798  -71.4524 H         1 UNK         0.3453 
     85 H85       -70.4643   28.2780  -73.0065 H         1 UNK         0.3453 
     86 H86       -72.7876   28.6405  -74.5269 H         1 UNK         0.2984 
     87 H87       -71.7721   29.0913  -77.2320 H         1 UNK         0.0554 
     88 H88       -69.3695   29.6472  -77.4068 H         1 UNK         0.0847 
     89 H89       -69.6252   27.9836  -77.9017 H         1 UNK         0.0847 
     90 H90       -68.9459   28.3379  -76.3133 H         1 UNK         0.0847 
     91 H91       -72.2841   26.9962  -76.7862 H         1 UNK         0.3141 
     92 H92       -71.0564   24.4056  -75.1669 H         1 UNK         0.0743 
     93 H93       -73.1028   25.7824  -73.3550 H         1 UNK         0.0784 
     94 H94       -72.9309   24.0351  -73.5135 H         1 UNK         0.0784 
     95 H95       -71.6130   24.9981  -72.8656 H         1 UNK         0.0784 
     96 H96       -73.8021   25.3751  -75.7809 H         1 UNK         0.3213 
     97 H97       -73.4961   24.2784  -79.1796 H         1 UNK         0.0855 
     98 H98       -75.2153   23.0567  -76.9617 H         1 UNK         0.0814 
     99 H99       -74.1456   22.1718  -78.0369 H         1 UNK         0.0814 
    100 H100      -75.5558   22.9913  -78.6883 H         1 UNK         0.0814 
    101 H101      -75.7603   25.3529  -77.9372 H         1 UNK         0.3105 
    102 H102      -75.0096   28.7824  -78.8091 H         1 UNK         0.0547 
    103 H103      -75.7910   27.4531  -80.7657 H         1 UNK         0.0837 
    104 H104      -76.9241   26.5774  -79.7456 H         1 UNK         0.0837 
    105 H105      -77.1210   28.3089  -80.0038 H         1 UNK         0.0837 
    106 H106      -77.0260   27.1725  -77.3332 H         1 UNK         0.3020 
    107 H107      -76.3483   28.7594  -74.2762 H         1 UNK         0.1245 
    108 H108      -78.9857   28.9180  -74.5219 H         1 UNK         0.0781 
    109 H109      -78.6767   29.3793  -76.1650 H         1 UNK         0.0781 
    110 H110      -79.9916   30.9498  -73.2992 H         1 UNK         0.0836 
    111 H111      -78.8568   32.0694  -72.5833 H         1 UNK         0.0836 
    112 H112      -78.2779   26.8278  -74.9057 H         1 UNK         0.3022 
    113 H113      -76.1970   23.9603  -75.0993 H         1 UNK         0.0747 
    114 H114      -77.4465   23.2490  -73.0594 H         1 UNK         0.0793 
    115 H115      -76.1384   24.3534  -72.6677 H         1 UNK         0.0793 
    116 H116      -77.7923   24.9399  -72.6806 H         1 UNK         0.0793 
    117 H117      -78.9973   24.1308  -74.8430 H         1 UNK         0.3047 
    118 H118      -80.0325   25.3405  -77.7312 H         1 UNK         0.0822 
    119 H119      -80.7060   23.2644  -78.9717 H         1 UNK         0.0807 
    120 H120      -79.3542   22.3998  -78.2375 H         1 UNK         0.0807 
    121 H121      -79.0543   23.7521  -79.3117 H         1 UNK         0.0807 
    122 H122      -81.3662   24.8248  -76.0879 H         1 UNK         0.2946 
    123 H123      -83.1169   23.0061  -75.2863 H         1 UNK         0.1144 
    124 H124      -83.1282   21.7007  -73.1449 H         1 UNK         0.0793 
    125 H125      -81.3919   21.4351  -73.2961 H         1 UNK         0.0793 
    126 H126      -82.4923   20.7659  -74.4881 H         1 UNK         0.0793 
    127 H127      -82.8499   24.7992  -73.9788 H         1 UNK         0.2896 
@<TRIPOS>BOND
     1    1    2 1    
     2    1   67 1    
     3    1   68 1    
     4    1   69 1    
     5    2    3 2    
     6    2    4 am   BACKBONE|DICT|INTERRES
     7    4    5 1    
     8    4   70 1    
     9    5    6 1    
    10    5   65 1    
    11    5   71 1    
    12    6    7 1    
    13    6   72 1    
    14    6   73 1    
    15    7    8 1    
    16    8    9 1    
    17    8   74 1    
    18    8   75 1    
    19    9   10 ar   
    20    9   14 ar   
    21   10   11 ar   
    22   10   76 1    
    23   11   12 ar   
    24   11   48 1    
    25   12   13 ar   
    26   12   77 1    
    27   13   14 ar   
    28   13   15 1    
    29   14   78 1    
    30   15   16 1    
    31   15   79 1    
    32   15   80 1    
    33   16   17 1    
    34   17   18 1    
    35   17   81 1    
    36   17   82 1    
    37   18   19 1    
    38   18   22 1    
    39   18   83 1    
    40   19   20 am   BACKBONE|DICT|INTERRES
    41   19   21 2    
    42   20   84 1    
    43   20   85 1    
    44   22   23 am   BACKBONE|DICT|INTERRES
    45   22   86 1    
    46   23   24 2    
    47   23   25 1    
    48   25   26 1    
    49   25   27 1    
    50   25   87 1    
    51   26   88 1    
    52   26   89 1    
    53   26   90 1    
    54   27   28 am   BACKBONE|DICT|INTERRES
    55   27   91 1    
    56   28   29 2    
    57   28   30 1    
    58   30   31 1    
    59   30   32 1    
    60   30   92 1    
    61   31   93 1    
    62   31   94 1    
    63   31   95 1    
    64   32   33 am   BACKBONE|DICT|INTERRES
    65   32   96 1    
    66   33   34 2    
    67   33   35 1    
    68   35   36 1    
    69   35   37 1    
    70   35   97 1    
    71   36   98 1    
    72   36   99 1    
    73   36  100 1    
    74   37   38 am   BACKBONE|DICT|INTERRES
    75   37  101 1    
    76   38   39 2    
    77   38   40 1    
    78   40   41 1    
    79   40   42 1    
    80   40  102 1    
    81   41  103 1    
    82   41  104 1    
    83   41  105 1    
    84   42   43 am   BACKBONE|DICT|INTERRES
    85   42  106 1    
    86   43   44 2    
    87   43   45 1    
    88   45   46 1    
    89   45   49 1    
    90   45  107 1    
    91   46   47 1    
    92   46  108 1    
    93   46  109 1    
    94   47   48 1    
    95   48  110 1    
    96   48  111 1    
    97   49   50 am   BACKBONE|DICT|INTERRES
    98   49  112 1    
    99   50   51 2    
   100   50   52 1    
   101   52   53 1    
   102   52   54 1    
   103   52  113 1    
   104   53  114 1    
   105   53  115 1    
   106   53  116 1    
   107   54   55 am   BACKBONE|DICT|INTERRES
   108   54  117 1    
   109   55   56 2    
   110   55   57 1    
   111   57   58 1    
   112   57   59 1    
   113   57  118 1    
   114   58  119 1    
   115   58  120 1    
   116   58  121 1    
   117   59   60 am   BACKBONE|DICT|INTERRES
   118   59  122 1    
   119   60   61 2    
   120   60   62 1    
   121   62   63 1    
   122   62   64 1    
   123   62  123 1    
   124   63  124 1    
   125   63  125 1    
   126   63  126 1    
   127   64   65 am   BACKBONE|DICT|INTERRES
   128   64  127 1    
   129   65   66 2    
@<TRIPOS>SUBSTRUCTURE
     1 UNK         1 GROUP             0       ****    0 ROOT    
