@<TRIPOS>MOLECULE
3R135
127   129    1
SMALL
USER_CHARGES


@<TRIPOS>ATOM
      1 CA        -82.3877   23.3755  -72.1660 C.3       0 UNK        -0.1998 
      2 C         -83.3080   24.5616  -71.8818 C.2       0 UNK         0.4909 
      3 O         -84.4115   24.3449  -71.3854 O.2       0 UNK        -0.5240 
      4 N         -82.9402   25.8213  -72.1706 N.am      1 UNK        -0.4739 
      5 CA        -81.6889   26.3362  -72.7566 C.3       1 UNK         0.0864 
      6 C6        -80.4190   26.0351  -71.9092 C.3       11 UNK        -0.0881 
      7 S7        -80.4640   26.8501  -70.2796 S.3       11 UNK        -0.2682 
      8 C8        -78.6780   27.0316  -69.9290 C.3       11 UNK         0.0289 
      9 C9        -77.9628   28.1990  -70.6183 C.ar      11 UNK        -0.0687 
     10 C10       -78.5283   28.9332  -71.6701 C.ar      11 UNK        -0.0823 
     11 C11       -77.8280   29.9853  -72.2662 C.ar      11 UNK        -0.0830 
     12 C12       -76.5610   30.3276  -71.7896 C.ar      11 UNK        -0.1021 
     13 C13       -75.9773   29.6052  -70.7465 C.ar      11 UNK        -0.0753 
     14 C14       -76.6803   28.5402  -70.1739 C.ar      11 UNK        -0.0933 
     15 C15       -74.5993   29.9849  -70.2220 C.3       11 UNK         0.0166 
     16 S16       -73.2795   29.5577  -71.4010 S.3       11 UNK        -0.2615 
     17 C17       -72.9194   31.1909  -72.1422 C.3       11 UNK        -0.0865 
     18 CA        -71.7288   31.1785  -73.1356 C.3       10 UNK         0.0862 
     19 C         -70.3636   30.9430  -72.4197 C.2       10 UNK         0.5551 
     20 N         -69.6373   29.8642  -72.6919 N.am      10 UNK        -0.7319 
     21 O         -69.9511   31.7684  -71.6082 O.2       10 UNK        -0.5018 
     22 N         -71.9994   30.2907  -74.2736 N.am      10 UNK        -0.4509 
     23 C         -71.3506   30.3133  -75.4443 C.2       10 UNK         0.4899 
     24 O         -70.5353   31.1830  -75.7560 O.2       10 UNK        -0.4839 
     25 CA        -71.6622   29.1642  -76.4244 C.3       9 UNK         0.0222 
     26 CB        -70.4978   28.8780  -77.3953 C.3       9 UNK        -0.1966 
     27 N         -72.0940   27.9273  -75.7600 N.am      9 UNK        -0.4218 
     28 C         -71.4133   27.1986  -74.8606 C.2       9 UNK         0.5020 
     29 O         -70.2991   27.5001  -74.4295 O.2       9 UNK        -0.5274 
     30 CA        -72.1029   25.9297  -74.3329 C.3       8 UNK         0.0270 
     31 CB        -72.9720   26.2620  -73.1097 C.3       8 UNK        -0.1976 
     32 N         -72.9209   25.2637  -75.3496 N.am      8 UNK        -0.4313 
     33 C         -72.4250   24.6045  -76.4069 C.2       8 UNK         0.5041 
     34 O         -71.2217   24.4252  -76.6008 O.2       8 UNK        -0.5577 
     35 CA        -73.4385   24.0656  -77.4308 C.3       7 UNK         0.0284 
     36 CB        -74.0737   22.7565  -76.9362 C.3       7 UNK        -0.1958 
     37 N         -74.4867   25.0368  -77.7523 N.am      7 UNK        -0.4454 
     38 C         -74.2794   26.1953  -78.3947 C.2       7 UNK         0.5089 
     39 O         -73.1873   26.5521  -78.8359 O.2       7 UNK        -0.5125 
     40 CA        -75.4919   27.1267  -78.5574 C.3       6 UNK         0.0408 
     41 CB        -76.3083   26.7494  -79.8036 C.3       6 UNK        -0.1791 
     42 N         -76.3621   27.1360  -77.3796 N.am      6 UNK        -0.4762 
     43 C         -76.0244   27.6562  -76.1899 C.2       6 UNK         0.5007 
     44 O         -74.9334   28.1769  -75.9571 O.2       6 UNK        -0.5032 
     45 CA        -77.0664   27.5217  -75.0585 C.3       5 UNK         0.0783 
     46 C46       -78.2152   28.5529  -75.2111 C.3       11 UNK        -0.0857 
     47 S47       -77.6801   30.2893  -75.0156 S.3       11 UNK        -0.2512 
     48 C48       -78.4386   30.7556  -73.4267 C.3       11 UNK         0.0225 
     49 N         -77.5898   26.1522  -74.9719 N.am      5 UNK        -0.4615 
     50 C         -76.8482   25.0548  -74.7600 C.2       4 UNK         0.5053 
     51 O         -75.6367   25.0792  -74.5504 O.2       4 UNK        -0.5105 
     52 CA        -77.5556   23.6921  -74.8516 C.3       4 UNK         0.0263 
     53 CB        -78.2104   23.3184  -73.5156 C.3       4 UNK        -0.1981 
     54 N         -78.5531   23.6136  -75.9203 N.am      4 UNK        -0.4224 
     55 C         -78.3201   23.7819  -77.2275 C.2       3 UNK         0.4895 
     56 O         -77.2091   24.0395  -77.6902 O.2       3 UNK        -0.5091 
     57 CA        -79.5231   23.6747  -78.1852 C.3       3 UNK         0.0250 
     58 CB        -79.8059   22.2066  -78.5587 C.3       3 UNK        -0.1996 
     59 N         -80.7366   24.3667  -77.7188 N.am      3 UNK        -0.4254 
     60 C         -81.5069   24.0854  -76.6577 C.2       2 UNK         0.5004 
     61 O         -81.3472   23.1095  -75.9201 O.2       2 UNK        -0.5226 
     62 CA        -82.6085   25.1071  -76.3239 C.3       2 UNK         0.0269 
     63 CB        -83.9944   24.5331  -76.6587 C.3       2 UNK        -0.1926 
     64 N         -82.5826   25.5151  -74.9137 N.am      2 UNK        -0.4687 
     65 C         -81.5142   25.9925  -74.2546 C.2       1 UNK         0.5165 
     66 O         -80.4212   26.1788  -74.7912 O.2       1 UNK        -0.5079 
     67 H67       -81.7295   23.5313  -73.0175 H         1 UNK         0.0900 
     68 H68       -82.9825   22.4891  -72.3852 H         1 UNK         0.0900 
     69 H69       -81.7789   23.1558  -71.2897 H         1 UNK         0.0900 
     70 H70       -83.6071   26.5482  -71.9497 H         1 UNK         0.2959 
     71 H71       -81.8082   27.4210  -72.7619 H         1 UNK         0.1079 
     72 H72       -79.5162   26.3625  -72.4275 H         1 UNK         0.0837 
     73 H73       -80.2879   24.9691  -71.7398 H         1 UNK         0.0837 
     74 H74       -78.5713   27.1501  -68.8497 H         1 UNK         0.0685 
     75 H75       -78.1687   26.1015  -70.1855 H         1 UNK         0.0685 
     76 H76       -79.5144   28.6957  -72.0385 H         1 UNK         0.1434 
     77 H77       -76.0271   31.1507  -72.2419 H         1 UNK         0.1329 
     78 H78       -76.2306   27.9786  -69.3661 H         1 UNK         0.1335 
     79 H79       -74.3967   29.4695  -69.2820 H         1 UNK         0.0680 
     80 H80       -74.5756   31.0506  -69.9903 H         1 UNK         0.0680 
     81 H81       -73.8118   31.5450  -72.6585 H         1 UNK         0.1032 
     82 H82       -72.7354   31.9123  -71.3436 H         1 UNK         0.1032 
     83 H83       -71.6612   32.1880  -73.5459 H         1 UNK         0.0461 
     84 H84       -68.7560   29.7343  -72.2220 H         1 UNK         0.3453 
     85 H85       -69.9627   29.1653  -73.3515 H         1 UNK         0.3453 
     86 H86       -72.6464   29.5362  -74.0965 H         1 UNK         0.2984 
     87 H87       -72.5143   29.4963  -77.0191 H         1 UNK         0.0554 
     88 H88       -70.7486   28.0716  -78.0848 H         1 UNK         0.0847 
     89 H89       -69.5888   28.5946  -76.8636 H         1 UNK         0.0847 
     90 H90       -70.2628   29.7561  -77.9978 H         1 UNK         0.0847 
     91 H91       -73.0503   27.6517  -75.9668 H         1 UNK         0.3141 
     92 H92       -71.3221   25.2348  -74.0167 H         1 UNK         0.0743 
     93 H93       -73.4217   25.3637  -72.6865 H         1 UNK         0.0784 
     94 H94       -72.3764   26.7275  -72.3233 H         1 UNK         0.0784 
     95 H95       -73.7795   26.9515  -73.3612 H         1 UNK         0.0784 
     96 H96       -73.9313   25.3021  -75.2204 H         1 UNK         0.3213 
     97 H97       -72.8953   23.8498  -78.3534 H         1 UNK         0.0855 
     98 H98       -73.3109   21.9963  -76.7630 H         1 UNK         0.0814 
     99 H99       -74.7752   22.3532  -77.6668 H         1 UNK         0.0814 
    100 H100      -74.6101   22.8972  -75.9984 H         1 UNK         0.0814 
    101 H101      -75.4398   24.7921  -77.4957 H         1 UNK         0.3105 
    102 H102      -75.1122   28.1410  -78.6989 H         1 UNK         0.0547 
    103 H103      -75.6837   26.7722  -80.6977 H         1 UNK         0.0837 
    104 H104      -76.7281   25.7460  -79.7278 H         1 UNK         0.0837 
    105 H105      -77.1300   27.4466  -79.9667 H         1 UNK         0.0837 
    106 H106      -77.2525   26.6677  -77.4661 H         1 UNK         0.3020 
    107 H107      -76.5497   27.7238  -74.1169 H         1 UNK         0.1245 
    108 H108      -78.9918   28.3499  -74.4742 H         1 UNK         0.0781 
    109 H109      -78.7034   28.4484  -76.1817 H         1 UNK         0.0781 
    110 H110      -79.5175   30.6005  -73.4778 H         1 UNK         0.0836 
    111 H111      -78.2936   31.8251  -73.2669 H         1 UNK         0.0836 
    112 H112      -78.5960   26.0479  -75.0855 H         1 UNK         0.3022 
    113 H113      -76.7903   22.9452  -75.0685 H         1 UNK         0.0747 
    114 H114      -78.5330   22.2771  -73.5121 H         1 UNK         0.0793 
    115 H115      -77.5181   23.4480  -72.6823 H         1 UNK         0.0793 
    116 H116      -79.0843   23.9359  -73.3227 H         1 UNK         0.0793 
    117 H117      -79.5112   23.4033  -75.6508 H         1 UNK         0.3047 
    118 H118      -79.2293   24.1890  -79.1018 H         1 UNK         0.0822 
    119 H119      -80.0809   21.6064  -77.6910 H         1 UNK         0.0807 
    120 H120      -78.9238   21.7438  -79.0032 H         1 UNK         0.0807 
    121 H121      -80.6130   22.1316  -79.2875 H         1 UNK         0.0807 
    122 H122      -80.9539   25.2091  -78.2336 H         1 UNK         0.2946 
    123 H123      -82.4509   26.0062  -76.9235 H         1 UNK         0.1144 
    124 H124      -84.0522   24.2369  -77.7071 H         1 UNK         0.0793 
    125 H125      -84.2199   23.6506  -76.0582 H         1 UNK         0.0793 
    126 H126      -84.7821   25.2670  -76.4872 H         1 UNK         0.0793 
    127 H127      -83.4398   25.3957  -74.3937 H         1 UNK         0.2896 
@<TRIPOS>BOND
     1    1    2 1    
     2    1   67 1    
     3    1   68 1    
     4    1   69 1    
     5    2    3 2    
     6    2    4 am   BACKBONE|DICT|INTERRES
     7    4    5 1    
     8    4   70 1    
     9    5    6 1    
    10    5   65 1    
    11    5   71 1    
    12    6    7 1    
    13    6   72 1    
    14    6   73 1    
    15    7    8 1    
    16    8    9 1    
    17    8   74 1    
    18    8   75 1    
    19    9   10 ar   
    20    9   14 ar   
    21   10   11 ar   
    22   10   76 1    
    23   11   12 ar   
    24   11   48 1    
    25   12   13 ar   
    26   12   77 1    
    27   13   14 ar   
    28   13   15 1    
    29   14   78 1    
    30   15   16 1    
    31   15   79 1    
    32   15   80 1    
    33   16   17 1    
    34   17   18 1    
    35   17   81 1    
    36   17   82 1    
    37   18   19 1    
    38   18   22 1    
    39   18   83 1    
    40   19   20 am   BACKBONE|DICT|INTERRES
    41   19   21 2    
    42   20   84 1    
    43   20   85 1    
    44   22   23 am   BACKBONE|DICT|INTERRES
    45   22   86 1    
    46   23   24 2    
    47   23   25 1    
    48   25   26 1    
    49   25   27 1    
    50   25   87 1    
    51   26   88 1    
    52   26   89 1    
    53   26   90 1    
    54   27   28 am   BACKBONE|DICT|INTERRES
    55   27   91 1    
    56   28   29 2    
    57   28   30 1    
    58   30   31 1    
    59   30   32 1    
    60   30   92 1    
    61   31   93 1    
    62   31   94 1    
    63   31   95 1    
    64   32   33 am   BACKBONE|DICT|INTERRES
    65   32   96 1    
    66   33   34 2    
    67   33   35 1    
    68   35   36 1    
    69   35   37 1    
    70   35   97 1    
    71   36   98 1    
    72   36   99 1    
    73   36  100 1    
    74   37   38 am   BACKBONE|DICT|INTERRES
    75   37  101 1    
    76   38   39 2    
    77   38   40 1    
    78   40   41 1    
    79   40   42 1    
    80   40  102 1    
    81   41  103 1    
    82   41  104 1    
    83   41  105 1    
    84   42   43 am   BACKBONE|DICT|INTERRES
    85   42  106 1    
    86   43   44 2    
    87   43   45 1    
    88   45   46 1    
    89   45   49 1    
    90   45  107 1    
    91   46   47 1    
    92   46  108 1    
    93   46  109 1    
    94   47   48 1    
    95   48  110 1    
    96   48  111 1    
    97   49   50 am   BACKBONE|DICT|INTERRES
    98   49  112 1    
    99   50   51 2    
   100   50   52 1    
   101   52   53 1    
   102   52   54 1    
   103   52  113 1    
   104   53  114 1    
   105   53  115 1    
   106   53  116 1    
   107   54   55 am   BACKBONE|DICT|INTERRES
   108   54  117 1    
   109   55   56 2    
   110   55   57 1    
   111   57   58 1    
   112   57   59 1    
   113   57  118 1    
   114   58  119 1    
   115   58  120 1    
   116   58  121 1    
   117   59   60 am   BACKBONE|DICT|INTERRES
   118   59  122 1    
   119   60   61 2    
   120   60   62 1    
   121   62   63 1    
   122   62   64 1    
   123   62  123 1    
   124   63  124 1    
   125   63  125 1    
   126   63  126 1    
   127   64   65 am   BACKBONE|DICT|INTERRES
   128   64  127 1    
   129   65   66 2    
@<TRIPOS>SUBSTRUCTURE
     1 UNK         1 GROUP             0       ****    0 ROOT    
