@<TRIPOS>MOLECULE
3R135
127   129    1
SMALL
USER_CHARGES


@<TRIPOS>ATOM
      1 CA        -81.6053   26.5782  -72.3870 C.3       0 UNK        -0.1998 
      2 C         -81.4709   26.8836  -73.8708 C.2       0 UNK         0.4909 
      3 O         -82.1087   26.2269  -74.6952 O.2       0 UNK        -0.5240 
      4 N         -80.6450   27.8777  -74.2236 N.am      1 UNK        -0.4739 
      5 CA        -80.3018   28.2269  -75.6031 C.3       1 UNK         0.0864 
      6 C6        -79.5518   29.5840  -75.7132 C.3       11 UNK        -0.0881 
      7 S7        -77.9850   29.7096  -74.7794 S.3       11 UNK        -0.2682 
      8 C8        -78.5368   30.3500  -73.1669 C.3       11 UNK         0.0289 
      9 C9        -77.8107   29.6383  -72.0358 C.ar      11 UNK        -0.0687 
     10 C10       -77.9714   28.2599  -71.8642 C.ar      11 UNK        -0.0823 
     11 C11       -77.2891   27.5823  -70.8547 C.ar      11 UNK        -0.0830 
     12 C12       -76.4481   28.2950  -69.9980 C.ar      11 UNK        -0.1021 
     13 C13       -76.2670   29.6712  -70.1646 C.ar      11 UNK        -0.0753 
     14 C14       -76.9606   30.3424  -71.1768 C.ar      11 UNK        -0.0933 
     15 C15       -75.2965   30.4123  -69.2606 C.3       11 UNK         0.0166 
     16 S16       -73.5741   30.0161  -69.6986 S.3       11 UNK        -0.2615 
     17 C17       -73.1826   31.2788  -70.9597 C.3       11 UNK        -0.0865 
     18 CA        -73.5215   30.8987  -72.4346 C.3       10 UNK         0.0862 
     19 C         -73.1151   32.0410  -73.4138 C.2       10 UNK         0.5551 
     20 N         -72.4051   31.7805  -74.5051 N.am      10 UNK        -0.7319 
     21 O         -73.4792   33.1932  -73.1922 O.2       10 UNK        -0.5018 
     22 N         -73.0943   29.5518  -72.8552 N.am      10 UNK        -0.4509 
     23 C         -71.8671   29.0250  -72.7676 C.2       10 UNK         0.4899 
     24 O         -70.9057   29.5699  -72.2253 O.2       10 UNK        -0.4839 
     25 CA        -71.6725   27.6647  -73.4618 C.3       9 UNK         0.0222 
     26 CB        -72.2518   26.5253  -72.6075 C.3       9 UNK        -0.1966 
     27 N         -72.2248   27.6136  -74.8252 N.am      9 UNK        -0.4218 
     28 C         -71.8167   28.4093  -75.8291 C.2       9 UNK         0.5020 
     29 O         -71.0221   29.3390  -75.6856 O.2       9 UNK        -0.5274 
     30 CA        -72.3687   28.1329  -77.2307 C.3       8 UNK         0.0270 
     31 CB        -71.7058   26.8832  -77.8359 C.3       8 UNK        -0.1976 
     32 N         -73.8169   27.9480  -77.2189 N.am      8 UNK        -0.4313 
     33 C         -74.6991   28.7143  -77.8766 C.2       8 UNK         0.5041 
     34 O         -74.3964   29.7542  -78.4652 O.2       8 UNK        -0.5577 
     35 CA        -76.1652   28.2268  -77.8997 C.3       7 UNK         0.0284 
     36 CB        -76.9370   28.6825  -79.1553 C.3       7 UNK        -0.1958 
     37 N         -76.2990   26.7786  -77.7045 N.am      7 UNK        -0.4454 
     38 C         -75.7528   25.8021  -78.4456 C.2       7 UNK         0.5089 
     39 O         -75.1768   25.9958  -79.5168 O.2       7 UNK        -0.5125 
     40 CA        -75.8271   24.3715  -77.8746 C.3       6 UNK         0.0408 
     41 CB        -74.5887   23.5367  -78.2617 C.3       6 UNK        -0.1791 
     42 N         -76.0409   24.2952  -76.4208 N.am      6 UNK        -0.4762 
     43 C         -75.2732   24.8090  -75.4433 C.2       6 UNK         0.5007 
     44 O         -74.3194   25.5675  -75.6455 O.2       6 UNK        -0.5032 
     45 CA        -75.6128   24.4144  -73.9917 C.3       5 UNK         0.0783 
     46 C46       -76.0211   25.6401  -73.1450 C.3       11 UNK        -0.0857 
     47 S47       -75.9495   25.2317  -71.3656 S.3       11 UNK        -0.2512 
     48 C48       -77.4253   26.0746  -70.7205 C.3       11 UNK         0.0225 
     49 N         -76.6335   23.3666  -73.9074 N.am      5 UNK        -0.4615 
     50 C         -76.4249   22.0543  -74.0312 C.2       4 UNK         0.5053 
     51 O         -75.3275   21.5595  -74.2875 O.2       4 UNK        -0.5105 
     52 CA        -77.6443   21.1335  -73.8381 C.3       4 UNK         0.0263 
     53 CB        -77.9280   20.9072  -72.3399 C.3       4 UNK        -0.1981 
     54 N         -78.8591   21.5524  -74.5574 N.am      4 UNK        -0.4224 
     55 C         -79.6202   22.6422  -74.3764 C.2       3 UNK         0.4895 
     56 O         -79.3946   23.5222  -73.5423 O.2       3 UNK        -0.5091 
     57 CA        -80.8333   22.7821  -75.3075 C.3       3 UNK         0.0250 
     58 CB        -82.1396   22.8903  -74.5035 C.3       3 UNK        -0.1996 
     59 N         -80.6811   23.9495  -76.1782 N.am      3 UNK        -0.4254 
     60 C         -79.8225   24.0013  -77.2090 C.2       2 UNK         0.5004 
     61 O         -79.0953   23.0605  -77.5286 O.2       2 UNK        -0.5226 
     62 CA        -79.7537   25.2975  -78.0396 C.3       2 UNK         0.0269 
     63 CB        -80.5608   25.1460  -79.3385 C.3       2 UNK        -0.1926 
     64 N         -80.2111   26.4915  -77.3279 N.am      2 UNK        -0.4687 
     65 C         -79.5745   27.0490  -76.2898 C.2       1 UNK         0.5165 
     66 O         -78.4971   26.6374  -75.8508 O.2       1 UNK        -0.5079 
     67 H67       -82.6571   26.5396  -72.1049 H         1 UNK         0.0900 
     68 H68       -81.1163   27.3305  -71.7685 H         1 UNK         0.0900 
     69 H69       -81.1563   25.6098  -72.1662 H         1 UNK         0.0900 
     70 H70       -80.1409   28.3868  -73.5152 H         1 UNK         0.2959 
     71 H71       -81.2526   28.3670  -76.1229 H         1 UNK         0.1079 
     72 H72       -79.3298   29.7966  -76.7607 H         1 UNK         0.0837 
     73 H73       -80.2116   30.3926  -75.3946 H         1 UNK         0.0837 
     74 H74       -78.3556   31.4254  -73.1357 H         1 UNK         0.0685 
     75 H75       -79.6112   30.2165  -73.0396 H         1 UNK         0.0685 
     76 H76       -78.5953   27.6997  -72.5433 H         1 UNK         0.1434 
     77 H77       -75.9011   27.7711  -69.2258 H         1 UNK         0.1329 
     78 H78       -76.8194   31.4062  -71.3102 H         1 UNK         0.1335 
     79 H79       -75.4631   31.4898  -69.2970 H         1 UNK         0.0680 
     80 H80       -75.4723   30.1119  -68.2266 H         1 UNK         0.0680 
     81 H81       -72.1173   31.4984  -70.8719 H         1 UNK         0.1032 
     82 H82       -73.6872   32.2071  -70.6864 H         1 UNK         0.1032 
     83 H83       -74.6072   30.8612  -72.5086 H         1 UNK         0.0461 
     84 H84       -72.1689   32.5388  -75.1248 H         1 UNK         0.3453 
     85 H85       -72.0544   30.8505  -74.6979 H         1 UNK         0.3453 
     86 H86       -73.7994   29.0162  -73.3390 H         1 UNK         0.2984 
     87 H87       -70.5975   27.4943  -73.5517 H         1 UNK         0.0554 
     88 H88       -72.1351   25.5566  -73.0935 H         1 UNK         0.0847 
     89 H89       -73.3091   26.6730  -72.3942 H         1 UNK         0.0847 
     90 H90       -71.7405   26.4685  -71.6456 H         1 UNK         0.0847 
     91 H91       -72.8802   26.8663  -75.0304 H         1 UNK         0.3141 
     92 H92       -72.1008   28.9860  -77.8577 H         1 UNK         0.0743 
     93 H93       -71.9327   25.9830  -77.2631 H         1 UNK         0.0784 
     94 H94       -72.0423   26.7173  -78.8597 H         1 UNK         0.0784 
     95 H95       -70.6206   26.9900  -77.8638 H         1 UNK         0.0784 
     96 H96       -74.1596   27.1144  -76.7480 H         1 UNK         0.3213 
     97 H97       -76.6416   28.6891  -77.0377 H         1 UNK         0.0855 
     98 H98       -76.9650   29.7706  -79.2235 H         1 UNK         0.0814 
     99 H99       -77.9696   28.3340  -79.1334 H         1 UNK         0.0814 
    100 H100      -76.4753   28.3113  -80.0706 H         1 UNK         0.0814 
    101 H101      -76.8073   26.5086  -76.8657 H         1 UNK         0.3105 
    102 H102      -76.6948   23.9047  -78.3403 H         1 UNK         0.0547 
    103 H103      -74.4914   23.4530  -79.3448 H         1 UNK         0.0837 
    104 H104      -73.6676   23.9841  -77.8865 H         1 UNK         0.0837 
    105 H105      -74.6540   22.5229  -77.8667 H         1 UNK         0.0837 
    106 H106      -76.8220   23.7221  -76.1317 H         1 UNK         0.3020 
    107 H107      -74.6815   24.0164  -73.5813 H         1 UNK         0.1245 
    108 H108      -77.0254   25.9684  -73.4196 H         1 UNK         0.0781 
    109 H109      -75.3683   26.4953  -73.3225 H         1 UNK         0.0781 
    110 H110      -77.5556   25.8118  -69.6698 H         1 UNK         0.0836 
    111 H111      -78.3117   25.7080  -71.2417 H         1 UNK         0.0836 
    112 H112      -77.5810   23.6669  -73.6855 H         1 UNK         0.3022 
    113 H113      -77.3717   20.1671  -74.2656 H         1 UNK         0.0747 
    114 H114      -78.7410   20.1962  -72.1932 H         1 UNK         0.0793 
    115 H115      -77.0492   20.5036  -71.8351 H         1 UNK         0.0793 
    116 H116      -78.1957   21.8328  -71.8290 H         1 UNK         0.0793 
    117 H117      -79.1220   20.9370  -75.3155 H         1 UNK         0.3047 
    118 H118      -80.9082   21.8940  -75.9391 H         1 UNK         0.0822 
    119 H119      -83.0015   23.0184  -75.1584 H         1 UNK         0.0807 
    120 H120      -82.1211   23.7282  -73.8065 H         1 UNK         0.0807 
    121 H121      -82.3084   21.9870  -73.9159 H         1 UNK         0.0807 
    122 H122      -81.2032   24.7804  -75.9200 H         1 UNK         0.2946 
    123 H123      -78.7091   25.4487  -78.3115 H         1 UNK         0.1144 
    124 H124      -80.2223   24.2803  -79.9099 H         1 UNK         0.0793 
    125 H125      -80.4469   26.0193  -79.9812 H         1 UNK         0.0793 
    126 H126      -81.6246   25.0093  -79.1399 H         1 UNK         0.0793 
    127 H127      -81.1078   26.8635  -77.6077 H         1 UNK         0.2896 
@<TRIPOS>BOND
     1    1    2 1    
     2    1   67 1    
     3    1   68 1    
     4    1   69 1    
     5    2    3 2    
     6    2    4 am   BACKBONE|DICT|INTERRES
     7    4    5 1    
     8    4   70 1    
     9    5    6 1    
    10    5   65 1    
    11    5   71 1    
    12    6    7 1    
    13    6   72 1    
    14    6   73 1    
    15    7    8 1    
    16    8    9 1    
    17    8   74 1    
    18    8   75 1    
    19    9   10 ar   
    20    9   14 ar   
    21   10   11 ar   
    22   10   76 1    
    23   11   12 ar   
    24   11   48 1    
    25   12   13 ar   
    26   12   77 1    
    27   13   14 ar   
    28   13   15 1    
    29   14   78 1    
    30   15   16 1    
    31   15   79 1    
    32   15   80 1    
    33   16   17 1    
    34   17   18 1    
    35   17   81 1    
    36   17   82 1    
    37   18   19 1    
    38   18   22 1    
    39   18   83 1    
    40   19   20 am   BACKBONE|DICT|INTERRES
    41   19   21 2    
    42   20   84 1    
    43   20   85 1    
    44   22   23 am   BACKBONE|DICT|INTERRES
    45   22   86 1    
    46   23   24 2    
    47   23   25 1    
    48   25   26 1    
    49   25   27 1    
    50   25   87 1    
    51   26   88 1    
    52   26   89 1    
    53   26   90 1    
    54   27   28 am   BACKBONE|DICT|INTERRES
    55   27   91 1    
    56   28   29 2    
    57   28   30 1    
    58   30   31 1    
    59   30   32 1    
    60   30   92 1    
    61   31   93 1    
    62   31   94 1    
    63   31   95 1    
    64   32   33 am   BACKBONE|DICT|INTERRES
    65   32   96 1    
    66   33   34 2    
    67   33   35 1    
    68   35   36 1    
    69   35   37 1    
    70   35   97 1    
    71   36   98 1    
    72   36   99 1    
    73   36  100 1    
    74   37   38 am   BACKBONE|DICT|INTERRES
    75   37  101 1    
    76   38   39 2    
    77   38   40 1    
    78   40   41 1    
    79   40   42 1    
    80   40  102 1    
    81   41  103 1    
    82   41  104 1    
    83   41  105 1    
    84   42   43 am   BACKBONE|DICT|INTERRES
    85   42  106 1    
    86   43   44 2    
    87   43   45 1    
    88   45   46 1    
    89   45   49 1    
    90   45  107 1    
    91   46   47 1    
    92   46  108 1    
    93   46  109 1    
    94   47   48 1    
    95   48  110 1    
    96   48  111 1    
    97   49   50 am   BACKBONE|DICT|INTERRES
    98   49  112 1    
    99   50   51 2    
   100   50   52 1    
   101   52   53 1    
   102   52   54 1    
   103   52  113 1    
   104   53  114 1    
   105   53  115 1    
   106   53  116 1    
   107   54   55 am   BACKBONE|DICT|INTERRES
   108   54  117 1    
   109   55   56 2    
   110   55   57 1    
   111   57   58 1    
   112   57   59 1    
   113   57  118 1    
   114   58  119 1    
   115   58  120 1    
   116   58  121 1    
   117   59   60 am   BACKBONE|DICT|INTERRES
   118   59  122 1    
   119   60   61 2    
   120   60   62 1    
   121   62   63 1    
   122   62   64 1    
   123   62  123 1    
   124   63  124 1    
   125   63  125 1    
   126   63  126 1    
   127   64   65 am   BACKBONE|DICT|INTERRES
   128   64  127 1    
   129   65   66 2    
@<TRIPOS>SUBSTRUCTURE
     1 UNK         1 GROUP             0       ****    0 ROOT    
