@<TRIPOS>MOLECULE
3R135
127   129    1
SMALL
USER_CHARGES


@<TRIPOS>ATOM
      1 CA        -82.6796   30.1422  -77.9432 C.3       0 UNK        -0.1998 
      2 C         -81.8054   28.9667  -77.5327 C.2       0 UNK         0.4909 
      3 O         -81.9660   27.8684  -78.0664 O.2       0 UNK        -0.5240 
      4 N         -80.8768   29.1922  -76.5958 N.am      1 UNK        -0.4739 
      5 CA        -79.9943   28.1730  -76.0196 C.3       1 UNK         0.0864 
      6 C6        -78.7758   28.7996  -75.2878 C.3       11 UNK        -0.0881 
      7 S7        -79.1725   30.2141  -74.1946 S.3       11 UNK        -0.2682 
      8 C8        -79.2696   29.4470  -72.5454 C.3       11 UNK         0.0289 
      9 C9        -77.9262   28.9083  -72.0764 C.ar      11 UNK        -0.0687 
     10 C10       -77.7237   27.5315  -71.9660 C.ar      11 UNK        -0.0823 
     11 C11       -76.4893   27.0255  -71.5521 C.ar      11 UNK        -0.0830 
     12 C12       -75.4533   27.9108  -71.2423 C.ar      11 UNK        -0.1021 
     13 C13       -75.6467   29.2966  -71.3257 C.ar      11 UNK        -0.0753 
     14 C14       -76.8886   29.7844  -71.7456 C.ar      11 UNK        -0.0933 
     15 C15       -74.5265   30.2901  -71.0260 C.3       11 UNK         0.0166 
     16 S16       -73.3333   29.7273  -69.7663 S.3       11 UNK        -0.2615 
     17 C17       -71.9400   30.8642  -70.0899 C.3       11 UNK        -0.0865 
     18 CA        -70.7905   30.2261  -70.9170 C.3       10 UNK         0.0862 
     19 C         -69.9595   29.1996  -70.0901 C.2       10 UNK         0.5551 
     20 N         -69.8469   27.9437  -70.5060 N.am      10 UNK        -0.7319 
     21 O         -69.3928   29.5568  -69.0601 O.2       10 UNK        -0.5018 
     22 N         -71.2653   29.7378  -72.2237 N.am      10 UNK        -0.4509 
     23 C         -70.5068   29.6217  -73.3210 C.2       10 UNK         0.4899 
     24 O         -69.3162   29.9325  -73.3654 O.2       10 UNK        -0.4839 
     25 CA        -71.1761   29.0588  -74.5892 C.3       9 UNK         0.0222 
     26 CB        -70.8904   27.5538  -74.7195 C.3       9 UNK        -0.1966 
     27 N         -72.6241   29.2745  -74.6766 N.am      9 UNK        -0.4218 
     28 C         -73.2403   30.4598  -74.7654 C.2       9 UNK         0.5020 
     29 O         -72.6557   31.5440  -74.7354 O.2       9 UNK        -0.5274 
     30 CA        -74.7689   30.4097  -74.9578 C.3       8 UNK         0.0270 
     31 CB        -75.4494   31.7461  -74.6072 C.3       8 UNK        -0.1976 
     32 N         -75.1182   30.0427  -76.3323 N.am      8 UNK        -0.4313 
     33 C         -74.9944   28.8157  -76.8507 C.2       8 UNK         0.5041 
     34 O         -74.5855   27.8390  -76.2127 O.2       8 UNK        -0.5577 
     35 CA        -75.3691   28.6494  -78.3281 C.3       7 UNK         0.0284 
     36 CB        -74.2337   29.1260  -79.2500 C.3       7 UNK        -0.1958 
     37 N         -75.6109   27.2306  -78.5419 N.am      7 UNK        -0.4454 
     38 C         -76.5364   26.6847  -79.3353 C.2       7 UNK         0.5089 
     39 O         -77.2110   27.3226  -80.1441 O.2       7 UNK        -0.5125 
     40 CA        -76.7639   25.1652  -79.1830 C.3       6 UNK         0.0408 
     41 CB        -76.0475   24.4006  -80.3075 C.3       6 UNK        -0.1791 
     42 N         -76.3387   24.6249  -77.8824 N.am      6 UNK        -0.4762 
     43 C         -76.8748   24.9757  -76.7040 C.2       6 UNK         0.5007 
     44 O         -77.8257   25.7508  -76.5928 O.2       6 UNK        -0.5032 
     45 CA        -76.2431   24.3710  -75.4440 C.3       5 UNK         0.0783 
     46 C46       -76.3275   25.3616  -74.2550 C.3       11 UNK        -0.0857 
     47 S47       -75.2998   24.8686  -72.8339 S.3       11 UNK        -0.2512 
     48 C48       -76.2754   25.5215  -71.4427 C.3       11 UNK         0.0225 
     49 N         -76.9266   23.1080  -75.1611 N.am      5 UNK        -0.4615 
     50 C         -76.3113   21.9664  -74.8253 C.2       4 UNK         0.5053 
     51 O         -75.0868   21.8336  -74.8325 O.2       4 UNK        -0.5105 
     52 CA        -77.1750   20.7698  -74.3786 C.3       4 UNK         0.0263 
     53 CB        -76.8142   20.3595  -72.9392 C.3       4 UNK        -0.1981 
     54 N         -78.6124   21.0487  -74.4290 N.am      4 UNK        -0.4224 
     55 C         -79.4564   20.5858  -75.3606 C.2       3 UNK         0.4895 
     56 O         -79.1262   19.8280  -76.2736 O.2       3 UNK        -0.5091 
     57 CA        -80.9231   21.0573  -75.2708 C.3       3 UNK         0.0250 
     58 CB        -81.7696   20.0254  -74.5075 C.3       3 UNK        -0.1996 
     59 N         -81.1149   22.3843  -74.6649 N.am      3 UNK        -0.4254 
     60 C         -80.5584   23.5169  -75.1159 C.2       2 UNK         0.5004 
     61 O         -79.7729   23.5486  -76.0643 O.2       2 UNK        -0.5226 
     62 CA        -80.8955   24.8114  -74.3634 C.3       2 UNK         0.0269 
     63 CB        -80.3931   24.7677  -72.9079 C.3       2 UNK        -0.1926 
     64 N         -80.2832   25.9394  -75.0649 N.am      2 UNK        -0.4687 
     65 C         -80.7678   27.1831  -75.1207 C.2       1 UNK         0.5165 
     66 O         -81.7646   27.5558  -74.4955 O.2       1 UNK        -0.5079 
     67 H67       -83.7273   29.9171  -77.7454 H         1 UNK         0.0900 
     68 H68       -82.4202   31.0517  -77.4015 H         1 UNK         0.0900 
     69 H69       -82.5681   30.3390  -79.0092 H         1 UNK         0.0900 
     70 H70       -80.8074   30.1031  -76.1637 H         1 UNK         0.2959 
     71 H71       -79.6053   27.5933  -76.8597 H         1 UNK         0.1079 
     72 H72       -78.0812   29.1769  -76.0393 H         1 UNK         0.0837 
     73 H73       -78.2078   28.0430  -74.7441 H         1 UNK         0.0837 
     74 H74       -80.0257   28.6608  -72.5561 H         1 UNK         0.0685 
     75 H75       -79.6202   30.1947  -71.8327 H         1 UNK         0.0685 
     76 H76       -78.5263   26.8531  -72.2138 H         1 UNK         0.1434 
     77 H77       -74.4954   27.5095  -70.9423 H         1 UNK         0.1329 
     78 H78       -77.0479   30.8505  -71.8345 H         1 UNK         0.1335 
     79 H79       -73.9998   30.4960  -71.9558 H         1 UNK         0.0680 
     80 H80       -74.9469   31.2403  -70.6923 H         1 UNK         0.0680 
     81 H81       -72.3096   31.7522  -70.6051 H         1 UNK         0.1032 
     82 H82       -71.5647   31.2300  -69.1321 H         1 UNK         0.1032 
     83 H83       -70.0900   31.0375  -71.1245 H         1 UNK         0.0461 
     84 H84       -70.3061   27.6442  -71.3501 H         1 UNK         0.3453 
     85 H85       -69.3015   27.2907  -69.9660 H         1 UNK         0.3453 
     86 H86       -72.2229   29.4238  -72.2588 H         1 UNK         0.2984 
     87 H87       -70.7218   29.5648  -75.4435 H         1 UNK         0.0554 
     88 H88       -69.8185   27.3532  -74.6847 H         1 UNK         0.0847 
     89 H89       -71.2602   27.1607  -75.6670 H         1 UNK         0.0847 
     90 H90       -71.3564   26.9823  -73.9158 H         1 UNK         0.0847 
     91 H91       -73.2010   28.4529  -74.8331 H         1 UNK         0.3141 
     92 H92       -75.1680   29.6481  -74.2836 H         1 UNK         0.0743 
     93 H93       -75.1300   32.5518  -75.2694 H         1 UNK         0.0784 
     94 H94       -76.5342   31.6671  -74.6748 H         1 UNK         0.0784 
     95 H95       -75.2124   32.0500  -73.5871 H         1 UNK         0.0784 
     96 H96       -75.4216   30.7965  -76.9324 H         1 UNK         0.3213 
     97 H97       -76.2811   29.2168  -78.5272 H         1 UNK         0.0855 
     98 H98       -73.3035   28.5915  -79.0519 H         1 UNK         0.0814 
     99 H99       -74.0354   30.1897  -79.1137 H         1 UNK         0.0814 
    100 H100      -74.4879   28.9762  -80.2995 H         1 UNK         0.0814 
    101 H101      -75.1513   26.6433  -77.8564 H         1 UNK         0.3105 
    102 H102      -77.8371   24.9875  -79.2793 H         1 UNK         0.0547 
    103 H103      -76.2699   23.3341  -80.2683 H         1 UNK         0.0837 
    104 H104      -74.9651   24.5225  -80.2534 H         1 UNK         0.0837 
    105 H105      -76.3664   24.7594  -81.2872 H         1 UNK         0.0837 
    106 H106      -75.5764   23.9616  -77.8961 H         1 UNK         0.3020 
    107 H107      -75.1866   24.1984  -75.6627 H         1 UNK         0.1245 
    108 H108      -77.3641   25.4713  -73.9359 H         1 UNK         0.0781 
    109 H109      -75.9972   26.3586  -74.5521 H         1 UNK         0.0781 
    110 H110      -75.7566   25.2951  -70.5101 H         1 UNK         0.0836 
    111 H111      -77.2299   24.9953  -71.3938 H         1 UNK         0.0836 
    112 H112      -77.9346   23.1239  -75.2769 H         1 UNK         0.3022 
    113 H113      -76.9281   19.9357  -75.0387 H         1 UNK         0.0747 
    114 H114      -77.3931   19.4938  -72.6168 H         1 UNK         0.0793 
    115 H115      -75.7605   20.0883  -72.8597 H         1 UNK         0.0793 
    116 H116      -76.9961   21.1690  -72.2309 H         1 UNK         0.0793 
    117 H117      -78.9800   21.6584  -73.7132 H         1 UNK         0.3047 
    118 H118      -81.2996   21.1148  -76.2945 H         1 UNK         0.0822 
    119 H119      -82.8289   20.2820  -74.5331 H         1 UNK         0.0807 
    120 H120      -81.4665   19.9477  -73.4625 H         1 UNK         0.0807 
    121 H121      -81.6694   19.0332  -74.9502 H         1 UNK         0.0807 
    122 H122      -81.7433   22.4307  -73.8752 H         1 UNK         0.2946 
    123 H123      -81.9820   24.9261  -74.3737 H         1 UNK         0.1144 
    124 H124      -80.6146   25.6989  -72.3865 H         1 UNK         0.0793 
    125 H125      -79.3179   24.5970  -72.8565 H         1 UNK         0.0793 
    126 H126      -80.8764   23.9694  -72.3439 H         1 UNK         0.0793 
    127 H127      -79.4867   25.6924  -75.6528 H         1 UNK         0.2896 
@<TRIPOS>BOND
     1    1    2 1    
     2    1   67 1    
     3    1   68 1    
     4    1   69 1    
     5    2    3 2    
     6    2    4 am   BACKBONE|DICT|INTERRES
     7    4    5 1    
     8    4   70 1    
     9    5    6 1    
    10    5   65 1    
    11    5   71 1    
    12    6    7 1    
    13    6   72 1    
    14    6   73 1    
    15    7    8 1    
    16    8    9 1    
    17    8   74 1    
    18    8   75 1    
    19    9   10 ar   
    20    9   14 ar   
    21   10   11 ar   
    22   10   76 1    
    23   11   12 ar   
    24   11   48 1    
    25   12   13 ar   
    26   12   77 1    
    27   13   14 ar   
    28   13   15 1    
    29   14   78 1    
    30   15   16 1    
    31   15   79 1    
    32   15   80 1    
    33   16   17 1    
    34   17   18 1    
    35   17   81 1    
    36   17   82 1    
    37   18   19 1    
    38   18   22 1    
    39   18   83 1    
    40   19   20 am   BACKBONE|DICT|INTERRES
    41   19   21 2    
    42   20   84 1    
    43   20   85 1    
    44   22   23 am   BACKBONE|DICT|INTERRES
    45   22   86 1    
    46   23   24 2    
    47   23   25 1    
    48   25   26 1    
    49   25   27 1    
    50   25   87 1    
    51   26   88 1    
    52   26   89 1    
    53   26   90 1    
    54   27   28 am   BACKBONE|DICT|INTERRES
    55   27   91 1    
    56   28   29 2    
    57   28   30 1    
    58   30   31 1    
    59   30   32 1    
    60   30   92 1    
    61   31   93 1    
    62   31   94 1    
    63   31   95 1    
    64   32   33 am   BACKBONE|DICT|INTERRES
    65   32   96 1    
    66   33   34 2    
    67   33   35 1    
    68   35   36 1    
    69   35   37 1    
    70   35   97 1    
    71   36   98 1    
    72   36   99 1    
    73   36  100 1    
    74   37   38 am   BACKBONE|DICT|INTERRES
    75   37  101 1    
    76   38   39 2    
    77   38   40 1    
    78   40   41 1    
    79   40   42 1    
    80   40  102 1    
    81   41  103 1    
    82   41  104 1    
    83   41  105 1    
    84   42   43 am   BACKBONE|DICT|INTERRES
    85   42  106 1    
    86   43   44 2    
    87   43   45 1    
    88   45   46 1    
    89   45   49 1    
    90   45  107 1    
    91   46   47 1    
    92   46  108 1    
    93   46  109 1    
    94   47   48 1    
    95   48  110 1    
    96   48  111 1    
    97   49   50 am   BACKBONE|DICT|INTERRES
    98   49  112 1    
    99   50   51 2    
   100   50   52 1    
   101   52   53 1    
   102   52   54 1    
   103   52  113 1    
   104   53  114 1    
   105   53  115 1    
   106   53  116 1    
   107   54   55 am   BACKBONE|DICT|INTERRES
   108   54  117 1    
   109   55   56 2    
   110   55   57 1    
   111   57   58 1    
   112   57   59 1    
   113   57  118 1    
   114   58  119 1    
   115   58  120 1    
   116   58  121 1    
   117   59   60 am   BACKBONE|DICT|INTERRES
   118   59  122 1    
   119   60   61 2    
   120   60   62 1    
   121   62   63 1    
   122   62   64 1    
   123   62  123 1    
   124   63  124 1    
   125   63  125 1    
   126   63  126 1    
   127   64   65 am   BACKBONE|DICT|INTERRES
   128   64  127 1    
   129   65   66 2    
@<TRIPOS>SUBSTRUCTURE
     1 UNK         1 GROUP             0       ****    0 ROOT    
