@<TRIPOS>MOLECULE
3R135
127   129    1
SMALL
USER_CHARGES


@<TRIPOS>ATOM
      1 CA        -84.3679   25.5444  -73.8058 C.3       0 UNK        -0.1998 
      2 C         -83.6030   26.8238  -74.1107 C.2       0 UNK         0.4909 
      3 O         -84.1841   27.7793  -74.6267 O.2       0 UNK        -0.5240 
      4 N         -82.3044   26.8465  -73.8016 N.am      1 UNK        -0.4739 
      5 CA        -81.3924   27.9659  -74.0299 C.3       1 UNK         0.0864 
      6 C6        -81.4908   29.0756  -72.9460 C.3       11 UNK        -0.0881 
      7 S7        -81.4228   28.4786  -71.2194 S.3       11 UNK        -0.2682 
      8 C8        -80.0141   29.4105  -70.5326 C.3       11 UNK         0.0289 
      9 C9        -78.6647   28.7842  -70.8623 C.ar      11 UNK        -0.0687 
     10 C10       -78.4032   27.4576  -70.5085 C.ar      11 UNK        -0.0823 
     11 C11       -77.1528   26.8866  -70.7552 C.ar      11 UNK        -0.0830 
     12 C12       -76.1539   27.6544  -71.3588 C.ar      11 UNK        -0.1021 
     13 C13       -76.3891   28.9933  -71.6950 C.ar      11 UNK        -0.0753 
     14 C14       -77.6532   29.5460  -71.4567 C.ar      11 UNK        -0.0933 
     15 C15       -75.2863   29.8534  -72.3057 C.3       11 UNK         0.0166 
     16 S16       -73.7154   29.7322  -71.3891 S.3       11 UNK        -0.2615 
     17 C17       -73.1175   31.4561  -71.4217 C.3       11 UNK        -0.0865 
     18 CA        -72.7678   32.0086  -72.8308 C.3       10 UNK         0.0862 
     19 C         -72.1988   33.4531  -72.6996 C.2       10 UNK         0.5551 
     20 N         -70.9118   33.6832  -72.9294 N.am      10 UNK        -0.7319 
     21 O         -72.9418   34.3770  -72.3781 O.2       10 UNK        -0.5018 
     22 N         -71.9489   31.0640  -73.6117 N.am      10 UNK        -0.4509 
     23 C         -71.6425   31.1958  -74.9096 C.2       10 UNK         0.4899 
     24 O         -71.9803   32.1509  -75.6093 O.2       10 UNK        -0.4839 
     25 CA        -70.8317   30.0513  -75.5390 C.3       9 UNK         0.0222 
     26 CB        -69.3591   30.1173  -75.1001 C.3       9 UNK        -0.1966 
     27 N         -71.3806   28.7231  -75.2448 N.am      9 UNK        -0.4218 
     28 C         -72.5683   28.2793  -75.6802 C.2       9 UNK         0.5020 
     29 O         -73.3599   28.9612  -76.3355 O.2       9 UNK        -0.5274 
     30 CA        -72.9311   26.8280  -75.3138 C.3       8 UNK         0.0270 
     31 CB        -73.6642   26.7710  -73.9652 C.3       8 UNK        -0.1976 
     32 N         -73.7707   26.1944  -76.3319 N.am      8 UNK        -0.4313 
     33 C         -73.3948   25.9334  -77.5898 C.2       8 UNK         0.5041 
     34 O         -72.2590   26.1329  -78.0282 O.2       8 UNK        -0.5577 
     35 CA        -74.4844   25.3221  -78.4889 C.3       7 UNK         0.0284 
     36 CB        -74.0433   25.1515  -79.9585 C.3       7 UNK        -0.1958 
     37 N         -74.9955   24.0600  -77.9389 N.am      7 UNK        -0.4454 
     38 C         -74.3024   22.9346  -77.7093 C.2       7 UNK         0.5089 
     39 O         -73.1113   22.7817  -77.9861 O.2       7 UNK        -0.5125 
     40 CA        -75.0947   21.7793  -77.0689 C.3       6 UNK         0.0408 
     41 CB        -74.1970   20.6114  -76.6070 C.3       6 UNK        -0.1791 
     42 N         -75.9795   22.2171  -75.9831 N.am      6 UNK        -0.4762 
     43 C         -75.6369   22.7934  -74.8187 C.2       6 UNK         0.5007 
     44 O         -74.4755   23.0715  -74.5180 O.2       6 UNK        -0.5032 
     45 CA        -76.7807   23.0837  -73.8162 C.3       5 UNK         0.0783 
     46 C46       -76.4240   24.1917  -72.7933 C.3       11 UNK        -0.0857 
     47 S47       -77.6460   24.2506  -71.4431 S.3       11 UNK        -0.2512 
     48 C48       -76.8771   25.4555  -70.3212 C.3       11 UNK         0.0225 
     49 N         -78.0380   23.3842  -74.5075 N.am      5 UNK        -0.4615 
     50 C         -78.9466   22.4901  -74.9147 C.2       4 UNK         0.5053 
     51 O         -78.8615   21.2820  -74.6977 O.2       4 UNK        -0.5105 
     52 CA        -80.1119   23.0250  -75.7653 C.3       4 UNK         0.0263 
     53 CB        -81.3503   23.2805  -74.8912 C.3       4 UNK        -0.1981 
     54 N         -79.7629   24.2468  -76.4988 N.am      4 UNK        -0.4224 
     55 C         -78.8839   24.3040  -77.5117 C.2       3 UNK         0.4895 
     56 O         -78.2873   23.3262  -77.9630 O.2       3 UNK        -0.5091 
     57 CA        -78.5806   25.6966  -78.0868 C.3       3 UNK         0.0250 
     58 CB        -79.6487   26.1025  -79.1143 C.3       3 UNK        -0.1996 
     59 N         -78.4756   26.7292  -77.0533 N.am      3 UNK        -0.4254 
     60 C         -77.5396   26.7717  -76.0930 C.2       2 UNK         0.5004 
     61 O         -76.6146   25.9645  -75.9963 O.2       2 UNK        -0.5226 
     62 CA        -77.6791   27.8907  -75.0471 C.3       2 UNK         0.0269 
     63 CB        -76.9345   29.1482  -75.5173 C.3       2 UNK        -0.1926 
     64 N         -79.0704   28.2457  -74.7478 N.am      2 UNK        -0.4687 
     65 C         -79.9715   27.4089  -74.2155 C.2       1 UNK         0.5165 
     66 O         -79.7261   26.2331  -73.9312 O.2       1 UNK        -0.5079 
     67 H67       -85.2162   25.7603  -73.1568 H         1 UNK         0.0900 
     68 H68       -84.7464   25.1044  -74.7279 H         1 UNK         0.0900 
     69 H69       -83.7415   24.8043  -73.3080 H         1 UNK         0.0900 
     70 H70       -81.8464   26.0344  -73.4071 H         1 UNK         0.2959 
     71 H71       -81.6582   28.4140  -74.9903 H         1 UNK         0.1079 
     72 H72       -82.4431   29.5949  -73.0628 H         1 UNK         0.0837 
     73 H73       -80.7295   29.8410  -73.1052 H         1 UNK         0.0837 
     74 H74       -80.1193   29.4393  -69.4473 H         1 UNK         0.0685 
     75 H75       -80.0638   30.4475  -70.8682 H         1 UNK         0.0685 
     76 H76       -79.1752   26.8680  -70.0328 H         1 UNK         0.1434 
     77 H77       -75.1813   27.2185  -71.5381 H         1 UNK         0.1329 
     78 H78       -77.8438   30.5791  -71.7130 H         1 UNK         0.1335 
     79 H79       -75.6041   30.8962  -72.3443 H         1 UNK         0.0680 
     80 H80       -75.1079   29.5460  -73.3354 H         1 UNK         0.0680 
     81 H81       -73.8694   32.0864  -70.9423 H         1 UNK         0.1032 
     82 H82       -72.2389   31.5013  -70.7750 H         1 UNK         0.1032 
     83 H83       -73.7047   32.1122  -73.3810 H         1 UNK         0.0461 
     84 H84       -70.2994   32.9293  -73.1954 H         1 UNK         0.3453 
     85 H85       -70.5528   34.6210  -72.8430 H         1 UNK         0.3453 
     86 H86       -71.6429   30.2379  -73.1199 H         1 UNK         0.2984 
     87 H87       -70.8621   30.1852  -76.6226 H         1 UNK         0.0554 
     88 H88       -68.9300   31.0956  -75.3219 H         1 UNK         0.0847 
     89 H89       -68.7554   29.3770  -75.6254 H         1 UNK         0.0847 
     90 H90       -69.2426   29.9460  -74.0293 H         1 UNK         0.0847 
     91 H91       -70.7967   28.0984  -74.7070 H         1 UNK         0.3141 
     92 H92       -72.0096   26.2474  -75.2363 H         1 UNK         0.0743 
     93 H93       -73.0819   27.2501  -73.1774 H         1 UNK         0.0784 
     94 H94       -73.8395   25.7405  -73.6562 H         1 UNK         0.0784 
     95 H95       -74.6301   27.2734  -74.0147 H         1 UNK         0.0784 
     96 H96       -74.7423   26.0202  -76.0830 H         1 UNK         0.3213 
     97 H97       -75.3137   26.0299  -78.4813 H         1 UNK         0.0855 
     98 H98       -73.1892   24.4806  -80.0545 H         1 UNK         0.0814 
     99 H99       -73.7498   26.1101  -80.3880 H         1 UNK         0.0814 
    100 H100      -74.8523   24.7551  -80.5718 H         1 UNK         0.0814 
    101 H101      -75.9578   24.0745  -77.6258 H         1 UNK         0.3105 
    102 H102      -75.7500   21.3959  -77.8525 H         1 UNK         0.0547 
    103 H103      -74.7876   19.7997  -76.1828 H         1 UNK         0.0837 
    104 H104      -73.4730   20.9287  -75.8560 H         1 UNK         0.0837 
    105 H105      -73.6341   20.1970  -77.4442 H         1 UNK         0.0837 
    106 H106      -76.9654   22.0588  -76.1450 H         1 UNK         0.3020 
    107 H107      -76.9058   22.1544  -73.2555 H         1 UNK         0.1245 
    108 H108      -76.3726   25.1683  -73.2777 H         1 UNK         0.0781 
    109 H109      -75.4458   24.0114  -72.3438 H         1 UNK         0.0781 
    110 H110      -75.8049   25.2667  -70.2481 H         1 UNK         0.0836 
    111 H111      -77.2780   25.3029  -69.3182 H         1 UNK         0.0836 
    112 H112      -78.1982   24.3600  -74.7179 H         1 UNK         0.3022 
    113 H113      -80.3649   22.2563  -76.4987 H         1 UNK         0.0747 
    114 H114      -82.1859   23.6572  -75.4811 H         1 UNK         0.0793 
    115 H115      -81.6819   22.3583  -74.4122 H         1 UNK         0.0793 
    116 H116      -81.1435   23.9982  -74.0975 H         1 UNK         0.0793 
    117 H117      -80.1650   25.1079  -76.1579 H         1 UNK         0.3047 
    118 H118      -77.6221   25.6389  -78.6044 H         1 UNK         0.0822 
    119 H119      -79.3984   27.0493  -79.5935 H         1 UNK         0.0807 
    120 H120      -80.6342   26.2066  -78.6586 H         1 UNK         0.0807 
    121 H121      -79.7327   25.3550  -79.9047 H         1 UNK         0.0807 
    122 H122      -79.1822   27.4501  -77.0563 H         1 UNK         0.2946 
    123 H123      -77.2220   27.5323  -74.1222 H         1 UNK         0.1144 
    124 H124      -76.9974   29.9491  -74.7810 H         1 UNK         0.0793 
    125 H125      -77.3337   29.5292  -76.4581 H         1 UNK         0.0793 
    126 H126      -75.8781   28.9345  -75.6770 H         1 UNK         0.0793 
    127 H127      -79.3469   29.1935  -74.9604 H         1 UNK         0.2896 
@<TRIPOS>BOND
     1    1    2 1    
     2    1   67 1    
     3    1   68 1    
     4    1   69 1    
     5    2    3 2    
     6    2    4 am   BACKBONE|DICT|INTERRES
     7    4    5 1    
     8    4   70 1    
     9    5    6 1    
    10    5   65 1    
    11    5   71 1    
    12    6    7 1    
    13    6   72 1    
    14    6   73 1    
    15    7    8 1    
    16    8    9 1    
    17    8   74 1    
    18    8   75 1    
    19    9   10 ar   
    20    9   14 ar   
    21   10   11 ar   
    22   10   76 1    
    23   11   12 ar   
    24   11   48 1    
    25   12   13 ar   
    26   12   77 1    
    27   13   14 ar   
    28   13   15 1    
    29   14   78 1    
    30   15   16 1    
    31   15   79 1    
    32   15   80 1    
    33   16   17 1    
    34   17   18 1    
    35   17   81 1    
    36   17   82 1    
    37   18   19 1    
    38   18   22 1    
    39   18   83 1    
    40   19   20 am   BACKBONE|DICT|INTERRES
    41   19   21 2    
    42   20   84 1    
    43   20   85 1    
    44   22   23 am   BACKBONE|DICT|INTERRES
    45   22   86 1    
    46   23   24 2    
    47   23   25 1    
    48   25   26 1    
    49   25   27 1    
    50   25   87 1    
    51   26   88 1    
    52   26   89 1    
    53   26   90 1    
    54   27   28 am   BACKBONE|DICT|INTERRES
    55   27   91 1    
    56   28   29 2    
    57   28   30 1    
    58   30   31 1    
    59   30   32 1    
    60   30   92 1    
    61   31   93 1    
    62   31   94 1    
    63   31   95 1    
    64   32   33 am   BACKBONE|DICT|INTERRES
    65   32   96 1    
    66   33   34 2    
    67   33   35 1    
    68   35   36 1    
    69   35   37 1    
    70   35   97 1    
    71   36   98 1    
    72   36   99 1    
    73   36  100 1    
    74   37   38 am   BACKBONE|DICT|INTERRES
    75   37  101 1    
    76   38   39 2    
    77   38   40 1    
    78   40   41 1    
    79   40   42 1    
    80   40  102 1    
    81   41  103 1    
    82   41  104 1    
    83   41  105 1    
    84   42   43 am   BACKBONE|DICT|INTERRES
    85   42  106 1    
    86   43   44 2    
    87   43   45 1    
    88   45   46 1    
    89   45   49 1    
    90   45  107 1    
    91   46   47 1    
    92   46  108 1    
    93   46  109 1    
    94   47   48 1    
    95   48  110 1    
    96   48  111 1    
    97   49   50 am   BACKBONE|DICT|INTERRES
    98   49  112 1    
    99   50   51 2    
   100   50   52 1    
   101   52   53 1    
   102   52   54 1    
   103   52  113 1    
   104   53  114 1    
   105   53  115 1    
   106   53  116 1    
   107   54   55 am   BACKBONE|DICT|INTERRES
   108   54  117 1    
   109   55   56 2    
   110   55   57 1    
   111   57   58 1    
   112   57   59 1    
   113   57  118 1    
   114   58  119 1    
   115   58  120 1    
   116   58  121 1    
   117   59   60 am   BACKBONE|DICT|INTERRES
   118   59  122 1    
   119   60   61 2    
   120   60   62 1    
   121   62   63 1    
   122   62   64 1    
   123   62  123 1    
   124   63  124 1    
   125   63  125 1    
   126   63  126 1    
   127   64   65 am   BACKBONE|DICT|INTERRES
   128   64  127 1    
   129   65   66 2    
@<TRIPOS>SUBSTRUCTURE
     1 UNK         1 GROUP             0       ****    0 ROOT    
