@<TRIPOS>MOLECULE
3R135
127   129    1
SMALL
USER_CHARGES


@<TRIPOS>ATOM
      1 CA        -84.1131   27.3780  -70.8860 C.3       0 UNK        -0.1998 
      2 C         -83.8439   27.5935  -72.3677 C.2       0 UNK         0.4909 
      3 O         -84.7476   27.4218  -73.1862 O.2       0 UNK        -0.5240 
      4 N         -82.6072   27.9713  -72.7167 N.am      1 UNK        -0.4739 
      5 CA        -82.1628   28.2123  -74.0962 C.3       1 UNK         0.0864 
      6 C6        -80.8179   28.9772  -74.1492 C.3       11 UNK        -0.0881 
      7 S7        -80.9191   30.6575  -73.4451 S.3       11 UNK        -0.2682 
      8 C8        -80.3746   30.4174  -71.7208 C.3       11 UNK         0.0289 
      9 C9        -78.9856   29.8020  -71.6109 C.ar      11 UNK        -0.0687 
     10 C10       -78.8162   28.5373  -71.0360 C.ar      11 UNK        -0.0823 
     11 C11       -77.5401   27.9838  -70.8909 C.ar      11 UNK        -0.0830 
     12 C12       -76.4301   28.7126  -71.3327 C.ar      11 UNK        -0.1021 
     13 C13       -76.5849   29.9667  -71.9318 C.ar      11 UNK        -0.0753 
     14 C14       -77.8663   30.5099  -72.0575 C.ar      11 UNK        -0.0933 
     15 C15       -75.3714   30.7489  -72.4164 C.3       11 UNK         0.0166 
     16 S16       -75.3543   30.8997  -74.2304 S.3       11 UNK        -0.2615 
     17 C17       -73.7575   31.7419  -74.5134 C.3       11 UNK        -0.0865 
     18 CA        -72.7530   30.8715  -75.3266 C.3       10 UNK         0.0862 
     19 C         -71.4825   31.6623  -75.7667 C.2       10 UNK         0.5551 
     20 N         -70.3183   31.0331  -75.8761 N.am      10 UNK        -0.7319 
     21 O         -71.5550   32.8570  -76.0452 O.2       10 UNK        -0.5018 
     22 N         -72.4814   29.5632  -74.7012 N.am      10 UNK        -0.4509 
     23 C         -71.8792   29.3709  -73.5192 C.2       10 UNK         0.4899 
     24 O         -71.4532   30.2830  -72.8102 O.2       10 UNK        -0.4839 
     25 CA        -71.7314   27.9261  -73.0175 C.3       9 UNK         0.0222 
     26 CB        -72.8109   27.6140  -71.9727 C.3       9 UNK        -0.1966 
     27 N         -71.8037   26.9142  -74.0711 N.am      9 UNK        -0.4218 
     28 C         -70.7909   26.5791  -74.8794 C.2       9 UNK         0.5020 
     29 O         -69.7124   27.1730  -74.9108 O.2       9 UNK        -0.5274 
     30 CA        -71.0132   25.3628  -75.7881 C.3       8 UNK         0.0270 
     31 CB        -71.0493   24.0643  -74.9630 C.3       8 UNK        -0.1976 
     32 N         -72.2587   25.4887  -76.5433 N.am      8 UNK        -0.4313 
     33 C         -72.3328   25.8459  -77.8321 C.2       8 UNK         0.5041 
     34 O         -71.3500   26.0883  -78.5345 O.2       8 UNK        -0.5577 
     35 CA        -73.7353   25.9425  -78.4612 C.3       7 UNK         0.0284 
     36 CB        -74.0414   24.6741  -79.2736 C.3       7 UNK        -0.1958 
     37 N         -74.8091   26.1775  -77.4889 N.am      7 UNK        -0.4454 
     38 C         -74.9447   27.3160  -76.7938 C.2       7 UNK         0.5089 
     39 O         -74.1821   28.2738  -76.9121 O.2       7 UNK        -0.5125 
     40 CA        -76.0839   27.3988  -75.7646 C.3       6 UNK         0.0408 
     41 CB        -77.3707   27.9308  -76.4113 C.3       6 UNK        -0.1791 
     42 N         -76.3740   26.1523  -75.0550 N.am      6 UNK        -0.4762 
     43 C         -75.5004   25.4682  -74.3018 C.2       6 UNK         0.5007 
     44 O         -74.2887   25.6892  -74.2766 O.2       6 UNK        -0.5032 
     45 CA        -76.0848   24.3257  -73.4570 C.3       5 UNK         0.0783 
     46 C46       -77.0450   24.8445  -72.3544 C.3       11 UNK        -0.0857 
     47 S47       -76.1306   25.5351  -70.9366 S.3       11 UNK        -0.2512 
     48 C48       -77.3736   26.6397  -70.1824 C.3       11 UNK         0.0225 
     49 N         -76.7315   23.3646  -74.3464 N.am      5 UNK        -0.4615 
     50 C         -76.0828   22.3784  -74.9815 C.2       4 UNK         0.5053 
     51 O         -74.9062   22.0849  -74.7694 O.2       4 UNK        -0.5105 
     52 CA        -76.8666   21.5901  -76.0473 C.3       4 UNK         0.0263 
     53 CB        -77.4608   20.3099  -75.4383 C.3       4 UNK        -0.1981 
     54 N         -77.9361   22.3625  -76.6850 N.am      4 UNK        -0.4224 
     55 C         -77.7545   23.4739  -77.4134 C.2       3 UNK         0.4895 
     56 O         -76.6544   23.9639  -77.6614 O.2       3 UNK        -0.5091 
     57 CA        -79.0219   24.1970  -77.8941 C.3       3 UNK         0.0250 
     58 CB        -79.4845   23.6329  -79.2466 C.3       3 UNK        -0.1996 
     59 N         -80.1296   24.1484  -76.9325 N.am      3 UNK        -0.4254 
     60 C         -80.0791   24.6270  -75.6814 C.2       2 UNK         0.5004 
     61 O         -79.0676   25.1124  -75.1662 O.2       2 UNK        -0.5226 
     62 CA        -81.3642   24.5188  -74.8474 C.3       2 UNK         0.0269 
     63 CB        -81.2013   23.4537  -73.7506 C.3       2 UNK        -0.1926 
     64 N         -81.6828   25.8043  -74.2279 N.am      2 UNK        -0.4687 
     65 C         -82.0410   26.9058  -74.9049 C.2       1 UNK         0.5165 
     66 O         -82.2600   26.9215  -76.1174 O.2       1 UNK        -0.5079 
     67 H67       -84.4234   26.3489  -70.7072 H         1 UNK         0.0900 
     68 H68       -84.9126   28.0382  -70.5506 H         1 UNK         0.0900 
     69 H69       -83.2317   27.5773  -70.2766 H         1 UNK         0.0900 
     70 H70       -81.9104   28.1101  -72.0014 H         1 UNK         0.2959 
     71 H71       -82.9221   28.8216  -74.5923 H         1 UNK         0.1079 
     72 H72       -80.0237   28.4067  -73.6655 H         1 UNK         0.0837 
     73 H73       -80.4976   29.0989  -75.1862 H         1 UNK         0.0837 
     74 H74       -80.3680   31.3880  -71.2229 H         1 UNK         0.0685 
     75 H75       -81.1123   29.8158  -71.1896 H         1 UNK         0.0685 
     76 H76       -79.6776   27.9929  -70.6746 H         1 UNK         0.1434 
     77 H77       -75.4419   28.3066  -71.1887 H         1 UNK         0.1329 
     78 H78       -77.9930   31.4855  -72.5070 H         1 UNK         0.1335 
     79 H79       -75.3810   31.7448  -71.9711 H         1 UNK         0.0680 
     80 H80       -74.4487   30.2692  -72.0877 H         1 UNK         0.0680 
     81 H81       -73.3190   32.0506  -73.5633 H         1 UNK         0.1032 
     82 H82       -73.9780   32.6661  -75.0502 H         1 UNK         0.1032 
     83 H83       -73.2445   30.6353  -76.2701 H         1 UNK         0.0461 
     84 H84       -69.5029   31.5464  -76.1713 H         1 UNK         0.3453 
     85 H85       -70.2476   30.0523  -75.6536 H         1 UNK         0.3453 
     86 H86       -72.8112   28.7642  -75.2271 H         1 UNK         0.2984 
     87 H87       -70.7578   27.8493  -72.5288 H         1 UNK         0.0554 
     88 H88       -72.6517   26.6384  -71.5131 H         1 UNK         0.0847 
     89 H89       -73.7990   27.6075  -72.4311 H         1 UNK         0.0847 
     90 H90       -72.8176   28.3546  -71.1718 H         1 UNK         0.0847 
     91 H91       -72.6776   26.3914  -74.1292 H         1 UNK         0.3141 
     92 H92       -70.1614   25.2974  -76.4685 H         1 UNK         0.0743 
     93 H93       -71.8954   24.0385  -74.2747 H         1 UNK         0.0784 
     94 H94       -71.1225   23.1898  -75.6097 H         1 UNK         0.0784 
     95 H95       -70.1407   23.9528  -74.3697 H         1 UNK         0.0784 
     96 H96       -73.1218   25.3546  -76.0289 H         1 UNK         0.3213 
     97 H97       -73.7211   26.7894  -79.1507 H         1 UNK         0.0855 
     98 H98       -74.0793   23.7887  -78.6376 H         1 UNK         0.0814 
     99 H99       -73.2759   24.4997  -80.0309 H         1 UNK         0.0814 
    100 H100      -74.9966   24.7557  -79.7925 H         1 UNK         0.0814 
    101 H101      -75.4848   25.4266  -77.3595 H         1 UNK         0.3105 
    102 H102      -75.7724   28.1158  -75.0037 H         1 UNK         0.0547 
    103 H103      -77.1932   28.8899  -76.8997 H         1 UNK         0.0837 
    104 H104      -77.7569   27.2442  -77.1643 H         1 UNK         0.0837 
    105 H105      -78.1510   28.0871  -75.6665 H         1 UNK         0.0837 
    106 H106      -77.3462   25.8498  -75.0574 H         1 UNK         0.3020 
    107 H107      -75.2476   23.8259  -72.9630 H         1 UNK         0.1245 
    108 H108      -77.6514   24.0216  -71.9727 H         1 UNK         0.0781 
    109 H109      -77.7517   25.5823  -72.7404 H         1 UNK         0.0781 
    110 H110      -77.0743   26.8370  -69.1524 H         1 UNK         0.0836 
    111 H111      -78.3252   26.1086  -70.1263 H         1 UNK         0.0836 
    112 H112      -77.6795   23.5859  -74.6239 H         1 UNK         0.3022 
    113 H113      -76.1570   21.3039  -76.8266 H         1 UNK         0.0747 
    114 H114      -77.9438   19.6950  -76.1980 H         1 UNK         0.0793 
    115 H115      -76.6824   19.6995  -74.9778 H         1 UNK         0.0793 
    116 H116      -78.1983   20.5339  -74.6663 H         1 UNK         0.0793 
    117 H117      -78.8813   22.0415  -76.5351 H         1 UNK         0.3047 
    118 H118      -78.7610   25.2471  -78.0370 H         1 UNK         0.0822 
    119 H119      -80.3204   24.2045  -79.6504 H         1 UNK         0.0807 
    120 H120      -79.7966   22.5908  -79.1667 H         1 UNK         0.0807 
    121 H121      -78.6802   23.6767  -79.9826 H         1 UNK         0.0807 
    122 H122      -81.0009   23.7668  -77.2726 H         1 UNK         0.2946 
    123 H123      -82.1968   24.2344  -75.4949 H         1 UNK         0.1144 
    124 H124      -80.9828   22.4765  -74.1834 H         1 UNK         0.0793 
    125 H125      -82.1125   23.3487  -73.1613 H         1 UNK         0.0793 
    126 H126      -80.3862   23.6970  -73.0673 H         1 UNK         0.0793 
    127 H127      -81.5124   25.8873  -73.2370 H         1 UNK         0.2896 
@<TRIPOS>BOND
     1    1    2 1    
     2    1   67 1    
     3    1   68 1    
     4    1   69 1    
     5    2    3 2    
     6    2    4 am   BACKBONE|DICT|INTERRES
     7    4    5 1    
     8    4   70 1    
     9    5    6 1    
    10    5   65 1    
    11    5   71 1    
    12    6    7 1    
    13    6   72 1    
    14    6   73 1    
    15    7    8 1    
    16    8    9 1    
    17    8   74 1    
    18    8   75 1    
    19    9   10 ar   
    20    9   14 ar   
    21   10   11 ar   
    22   10   76 1    
    23   11   12 ar   
    24   11   48 1    
    25   12   13 ar   
    26   12   77 1    
    27   13   14 ar   
    28   13   15 1    
    29   14   78 1    
    30   15   16 1    
    31   15   79 1    
    32   15   80 1    
    33   16   17 1    
    34   17   18 1    
    35   17   81 1    
    36   17   82 1    
    37   18   19 1    
    38   18   22 1    
    39   18   83 1    
    40   19   20 am   BACKBONE|DICT|INTERRES
    41   19   21 2    
    42   20   84 1    
    43   20   85 1    
    44   22   23 am   BACKBONE|DICT|INTERRES
    45   22   86 1    
    46   23   24 2    
    47   23   25 1    
    48   25   26 1    
    49   25   27 1    
    50   25   87 1    
    51   26   88 1    
    52   26   89 1    
    53   26   90 1    
    54   27   28 am   BACKBONE|DICT|INTERRES
    55   27   91 1    
    56   28   29 2    
    57   28   30 1    
    58   30   31 1    
    59   30   32 1    
    60   30   92 1    
    61   31   93 1    
    62   31   94 1    
    63   31   95 1    
    64   32   33 am   BACKBONE|DICT|INTERRES
    65   32   96 1    
    66   33   34 2    
    67   33   35 1    
    68   35   36 1    
    69   35   37 1    
    70   35   97 1    
    71   36   98 1    
    72   36   99 1    
    73   36  100 1    
    74   37   38 am   BACKBONE|DICT|INTERRES
    75   37  101 1    
    76   38   39 2    
    77   38   40 1    
    78   40   41 1    
    79   40   42 1    
    80   40  102 1    
    81   41  103 1    
    82   41  104 1    
    83   41  105 1    
    84   42   43 am   BACKBONE|DICT|INTERRES
    85   42  106 1    
    86   43   44 2    
    87   43   45 1    
    88   45   46 1    
    89   45   49 1    
    90   45  107 1    
    91   46   47 1    
    92   46  108 1    
    93   46  109 1    
    94   47   48 1    
    95   48  110 1    
    96   48  111 1    
    97   49   50 am   BACKBONE|DICT|INTERRES
    98   49  112 1    
    99   50   51 2    
   100   50   52 1    
   101   52   53 1    
   102   52   54 1    
   103   52  113 1    
   104   53  114 1    
   105   53  115 1    
   106   53  116 1    
   107   54   55 am   BACKBONE|DICT|INTERRES
   108   54  117 1    
   109   55   56 2    
   110   55   57 1    
   111   57   58 1    
   112   57   59 1    
   113   57  118 1    
   114   58  119 1    
   115   58  120 1    
   116   58  121 1    
   117   59   60 am   BACKBONE|DICT|INTERRES
   118   59  122 1    
   119   60   61 2    
   120   60   62 1    
   121   62   63 1    
   122   62   64 1    
   123   62  123 1    
   124   63  124 1    
   125   63  125 1    
   126   63  126 1    
   127   64   65 am   BACKBONE|DICT|INTERRES
   128   64  127 1    
   129   65   66 2    
@<TRIPOS>SUBSTRUCTURE
     1 UNK         1 GROUP             0       ****    0 ROOT    
