@<TRIPOS>MOLECULE
3R135
127   129    1
SMALL
USER_CHARGES


@<TRIPOS>ATOM
      1 CA        -84.9592   26.2348  -71.9686 C.3       0 UNK        -0.1998 
      2 C         -83.7264   26.6784  -72.7415 C.2       0 UNK         0.4909 
      3 O         -83.8433   27.4603  -73.6852 O.2       0 UNK        -0.5240 
      4 N         -82.5448   26.1813  -72.3524 N.am      1 UNK        -0.4739 
      5 CA        -81.2521   26.5154  -72.9686 C.3       1 UNK         0.0864 
      6 C6        -80.0678   26.2698  -72.0022 C.3       11 UNK        -0.0881 
      7 S7        -80.1993   27.2770  -70.4857 S.3       11 UNK        -0.2682 
      8 C8        -78.4736   27.8247  -70.2279 C.3       11 UNK         0.0289 
      9 C9        -77.8930   28.7449  -71.3051 C.ar      11 UNK        -0.0687 
     10 C10       -78.6980   29.5398  -72.1316 C.ar      11 UNK        -0.0823 
     11 C11       -78.1260   30.3751  -73.0968 C.ar      11 UNK        -0.0830 
     12 C12       -76.7356   30.4518  -73.2047 C.ar      11 UNK        -0.1021 
     13 C13       -75.9190   29.6596  -72.3964 C.ar      11 UNK        -0.0753 
     14 C14       -76.5034   28.8092  -71.4526 C.ar      11 UNK        -0.0933 
     15 C15       -74.4096   29.6960  -72.5709 C.3       11 UNK         0.0166 
     16 S16       -73.5818   30.3533  -71.0895 S.3       11 UNK        -0.2615 
     17 C17       -71.8529   30.5335  -71.6611 C.3       11 UNK        -0.0865 
     18 CA        -70.9804   29.2581  -71.5103 C.3       10 UNK         0.0862 
     19 C         -70.8137   28.8147  -70.0246 C.2       10 UNK         0.5551 
     20 N         -71.2590   27.6281  -69.6288 N.am      10 UNK        -0.7319 
     21 O         -70.2574   29.5608  -69.2221 O.2       10 UNK        -0.5018 
     22 N         -71.4111   28.2164  -72.4547 N.am      10 UNK        -0.4509 
     23 C         -70.6951   27.1493  -72.8266 C.2       10 UNK         0.4899 
     24 O         -69.5733   26.8828  -72.3951 O.2       10 UNK        -0.4839 
     25 CA        -71.3423   26.2270  -73.8738 C.3       9 UNK         0.0222 
     26 CB        -72.2056   25.1546  -73.1902 C.3       9 UNK        -0.1966 
     27 N         -72.1498   26.9370  -74.8723 N.am      9 UNK        -0.4218 
     28 C         -71.6687   27.7882  -75.7910 C.2       9 UNK         0.5020 
     29 O         -70.4939   28.1580  -75.8428 O.2       9 UNK        -0.5274 
     30 CA        -72.6811   28.2545  -76.8554 C.3       8 UNK         0.0270 
     31 CB        -72.0608   29.1549  -77.9445 C.3       8 UNK        -0.1976 
     32 N         -73.3863   27.1111  -77.4490 N.am      8 UNK        -0.4313 
     33 C         -72.8524   26.0708  -78.1099 C.2       8 UNK         0.5041 
     34 O         -71.6672   25.9874  -78.4341 O.2       8 UNK        -0.5577 
     35 CA        -73.7914   24.8966  -78.4386 C.3       7 UNK         0.0284 
     36 CB        -73.6088   23.7734  -77.4040 C.3       7 UNK        -0.1958 
     37 N         -75.2047   25.2762  -78.4833 N.am      7 UNK        -0.4454 
     38 C         -75.7716   25.9877  -79.4669 C.2       7 UNK         0.5089 
     39 O         -75.1757   26.3631  -80.4769 O.2       7 UNK        -0.5125 
     40 CA        -77.2485   26.3660  -79.2729 C.3       6 UNK         0.0408 
     41 CB        -78.1664   25.1916  -79.6455 C.3       6 UNK        -0.1791 
     42 N         -77.5333   26.8004  -77.9032 N.am      6 UNK        -0.4762 
     43 C         -77.0979   27.9494  -77.3632 C.2       6 UNK         0.5007 
     44 O         -76.4202   28.7774  -77.9717 O.2       6 UNK        -0.5032 
     45 CA        -77.4482   28.1933  -75.8843 C.3       5 UNK         0.0783 
     46 C46       -78.8423   28.8620  -75.7291 C.3       11 UNK        -0.0857 
     47 S47       -78.7464   30.6846  -75.7995 S.3       11 UNK        -0.2512 
     48 C48       -79.0124   31.1612  -74.0546 C.3       11 UNK         0.0225 
     49 N         -77.3244   26.9566  -75.1042 N.am      5 UNK        -0.4615 
     50 C         -76.1489   26.4292  -74.7331 C.2       4 UNK         0.5053 
     51 O         -75.0589   26.9483  -74.9787 O.2       4 UNK        -0.5105 
     52 CA        -76.1566   25.0896  -73.9802 C.3       4 UNK         0.0263 
     53 CB        -76.1281   25.3163  -72.4610 C.3       4 UNK        -0.1981 
     54 N         -77.2461   24.1721  -74.3273 N.am      4 UNK        -0.4224 
     55 C         -77.4151   23.6146  -75.5356 C.2       3 UNK         0.4895 
     56 O         -76.7863   23.9509  -76.5385 O.2       3 UNK        -0.5091 
     57 CA        -78.4460   22.4802  -75.6329 C.3       3 UNK         0.0250 
     58 CB        -78.1543   21.3510  -74.6276 C.3       3 UNK        -0.1996 
     59 N         -79.7979   22.9927  -75.4253 N.am      3 UNK        -0.4254 
     60 C         -80.5763   23.4797  -76.4000 C.2       2 UNK         0.5004 
     61 O         -80.2881   23.4439  -77.5962 O.2       2 UNK        -0.5226 
     62 CA        -81.9000   24.1375  -75.9697 C.3       2 UNK         0.0269 
     63 CB        -83.0401   23.1063  -75.9745 C.3       2 UNK        -0.1926 
     64 N         -81.8687   24.8172  -74.6668 N.am      2 UNK        -0.4687 
     65 C         -81.0168   25.7928  -74.3133 C.2       1 UNK         0.5165 
     66 O         -80.0539   26.1266  -75.0021 O.2       1 UNK        -0.5079 
     67 H67       -85.6624   25.7374  -72.6361 H         1 UNK         0.0900 
     68 H68       -85.4578   27.0992  -71.5309 H         1 UNK         0.0900 
     69 H69       -84.7093   25.5446  -71.1631 H         1 UNK         0.0900 
     70 H70       -82.5025   25.5598  -71.5567 H         1 UNK         0.2959 
     71 H71       -81.2626   27.5814  -73.2081 H         1 UNK         0.1079 
     72 H72       -80.0006   25.2174  -71.7208 H         1 UNK         0.0837 
     73 H73       -79.1305   26.5185  -72.5003 H         1 UNK         0.0837 
     74 H74       -78.4245   28.3504  -69.2736 H         1 UNK         0.0685 
     75 H75       -77.8484   26.9373  -70.1193 H         1 UNK         0.0685 
     76 H76       -79.7738   29.5022  -72.0379 H         1 UNK         0.1434 
     77 H77       -76.2940   31.0998  -73.9496 H         1 UNK         0.1329 
     78 H78       -75.8674   28.2009  -70.8239 H         1 UNK         0.1335 
     79 H79       -74.0655   28.6819  -72.7728 H         1 UNK         0.0680 
     80 H80       -74.1360   30.2995  -73.4381 H         1 UNK         0.0680 
     81 H81       -71.8481   30.8708  -72.6989 H         1 UNK         0.1032 
     82 H82       -71.4027   31.3525  -71.0968 H         1 UNK         0.1032 
     83 H83       -69.9742   29.5401  -71.8275 H         1 UNK         0.0461 
     84 H84       -71.7095   27.0106  -70.2837 H         1 UNK         0.3453 
     85 H85       -71.1410   27.3502  -68.6672 H         1 UNK         0.3453 
     86 H86       -72.3256   28.3382  -72.8591 H         1 UNK         0.2984 
     87 H87       -70.5351   25.7208  -74.4074 H         1 UNK         0.0554 
     88 H88       -71.6192   24.5828  -72.4694 H         1 UNK         0.0847 
     89 H89       -72.6054   24.4445  -73.9145 H         1 UNK         0.0847 
     90 H90       -73.0443   25.5946  -72.6510 H         1 UNK         0.0847 
     91 H91       -73.1469   26.7375  -74.8973 H         1 UNK         0.3141 
     92 H92       -73.4347   28.8439  -76.3304 H         1 UNK         0.0743 
     93 H93       -71.6273   30.0540  -77.5051 H         1 UNK         0.0784 
     94 H94       -71.2666   28.6458  -78.4913 H         1 UNK         0.0784 
     95 H95       -72.8124   29.4756  -78.6659 H         1 UNK         0.0784 
     96 H96       -74.3663   27.0462  -77.2076 H         1 UNK         0.3213 
     97 H97       -73.5077   24.5106  -79.4202 H         1 UNK         0.0855 
     98 H98       -72.5713   23.4380  -77.3690 H         1 UNK         0.0814 
     99 H99       -74.2223   22.9057  -77.6472 H         1 UNK         0.0814 
    100 H100      -73.8791   24.1031  -76.4001 H         1 UNK         0.0814 
    101 H101      -75.7950   24.9393  -77.7234 H         1 UNK         0.3105 
    102 H102      -77.4734   27.1969  -79.9450 H         1 UNK         0.0547 
    103 H103      -77.9938   24.8732  -80.6743 H         1 UNK         0.0837 
    104 H104      -77.9988   24.3251  -79.0044 H         1 UNK         0.0837 
    105 H105      -79.2180   25.4665  -79.5637 H         1 UNK         0.0837 
    106 H106      -78.0480   26.1566  -77.3177 H         1 UNK         0.3020 
    107 H107      -76.6941   28.8820  -75.4974 H         1 UNK         0.1245 
    108 H108      -79.2906   28.5874  -74.7749 H         1 UNK         0.0781 
    109 H109      -79.5494   28.5104  -76.4832 H         1 UNK         0.0781 
    110 H110      -80.0669   31.0214  -73.8114 H         1 UNK         0.0836 
    111 H111      -78.8096   32.2269  -73.9408 H         1 UNK         0.0836 
    112 H112      -78.1921   26.4663  -74.9060 H         1 UNK         0.3022 
    113 H113      -75.2262   24.5854  -74.2495 H         1 UNK         0.0747 
    114 H114      -75.3489   26.0265  -72.1825 H         1 UNK         0.0793 
    115 H115      -77.0704   25.7143  -72.0916 H         1 UNK         0.0793 
    116 H116      -75.9238   24.3887  -71.9260 H         1 UNK         0.0793 
    117 H117      -77.8173   23.8449  -73.5634 H         1 UNK         0.3047 
    118 H118      -78.3664   22.0529  -76.6353 H         1 UNK         0.0822 
    119 H119      -78.8129   20.4988  -74.7969 H         1 UNK         0.0807 
    120 H120      -78.2858   21.6678  -73.5927 H         1 UNK         0.0807 
    121 H121      -77.1300   20.9902  -74.7326 H         1 UNK         0.0807 
    122 H122      -80.1265   23.0712  -74.4744 H         1 UNK         0.2946 
    123 H123      -82.1264   24.8990  -76.7194 H         1 UNK         0.1144 
    124 H124      -84.0057   23.5800  -75.7959 H         1 UNK         0.0793 
    125 H125      -82.8945   22.3398  -75.2123 H         1 UNK         0.0793 
    126 H126      -83.1048   22.5994  -76.9386 H         1 UNK         0.0793 
    127 H127      -82.6211   24.6046  -74.0279 H         1 UNK         0.2896 
@<TRIPOS>BOND
     1    1    2 1    
     2    1   67 1    
     3    1   68 1    
     4    1   69 1    
     5    2    3 2    
     6    2    4 am   BACKBONE|DICT|INTERRES
     7    4    5 1    
     8    4   70 1    
     9    5    6 1    
    10    5   65 1    
    11    5   71 1    
    12    6    7 1    
    13    6   72 1    
    14    6   73 1    
    15    7    8 1    
    16    8    9 1    
    17    8   74 1    
    18    8   75 1    
    19    9   10 ar   
    20    9   14 ar   
    21   10   11 ar   
    22   10   76 1    
    23   11   12 ar   
    24   11   48 1    
    25   12   13 ar   
    26   12   77 1    
    27   13   14 ar   
    28   13   15 1    
    29   14   78 1    
    30   15   16 1    
    31   15   79 1    
    32   15   80 1    
    33   16   17 1    
    34   17   18 1    
    35   17   81 1    
    36   17   82 1    
    37   18   19 1    
    38   18   22 1    
    39   18   83 1    
    40   19   20 am   BACKBONE|DICT|INTERRES
    41   19   21 2    
    42   20   84 1    
    43   20   85 1    
    44   22   23 am   BACKBONE|DICT|INTERRES
    45   22   86 1    
    46   23   24 2    
    47   23   25 1    
    48   25   26 1    
    49   25   27 1    
    50   25   87 1    
    51   26   88 1    
    52   26   89 1    
    53   26   90 1    
    54   27   28 am   BACKBONE|DICT|INTERRES
    55   27   91 1    
    56   28   29 2    
    57   28   30 1    
    58   30   31 1    
    59   30   32 1    
    60   30   92 1    
    61   31   93 1    
    62   31   94 1    
    63   31   95 1    
    64   32   33 am   BACKBONE|DICT|INTERRES
    65   32   96 1    
    66   33   34 2    
    67   33   35 1    
    68   35   36 1    
    69   35   37 1    
    70   35   97 1    
    71   36   98 1    
    72   36   99 1    
    73   36  100 1    
    74   37   38 am   BACKBONE|DICT|INTERRES
    75   37  101 1    
    76   38   39 2    
    77   38   40 1    
    78   40   41 1    
    79   40   42 1    
    80   40  102 1    
    81   41  103 1    
    82   41  104 1    
    83   41  105 1    
    84   42   43 am   BACKBONE|DICT|INTERRES
    85   42  106 1    
    86   43   44 2    
    87   43   45 1    
    88   45   46 1    
    89   45   49 1    
    90   45  107 1    
    91   46   47 1    
    92   46  108 1    
    93   46  109 1    
    94   47   48 1    
    95   48  110 1    
    96   48  111 1    
    97   49   50 am   BACKBONE|DICT|INTERRES
    98   49  112 1    
    99   50   51 2    
   100   50   52 1    
   101   52   53 1    
   102   52   54 1    
   103   52  113 1    
   104   53  114 1    
   105   53  115 1    
   106   53  116 1    
   107   54   55 am   BACKBONE|DICT|INTERRES
   108   54  117 1    
   109   55   56 2    
   110   55   57 1    
   111   57   58 1    
   112   57   59 1    
   113   57  118 1    
   114   58  119 1    
   115   58  120 1    
   116   58  121 1    
   117   59   60 am   BACKBONE|DICT|INTERRES
   118   59  122 1    
   119   60   61 2    
   120   60   62 1    
   121   62   63 1    
   122   62   64 1    
   123   62  123 1    
   124   63  124 1    
   125   63  125 1    
   126   63  126 1    
   127   64   65 am   BACKBONE|DICT|INTERRES
   128   64  127 1    
   129   65   66 2    
@<TRIPOS>SUBSTRUCTURE
     1 UNK         1 GROUP             0       ****    0 ROOT    
