@<TRIPOS>MOLECULE
3R135
127   129    1
SMALL
USER_CHARGES


@<TRIPOS>ATOM
      1 CA        -81.3890   22.2274  -72.4702 C.3       0 UNK        -0.1998 
      2 C         -81.8414   23.5821  -72.9922 C.2       0 UNK         0.4909 
      3 O         -82.3973   23.6646  -74.0881 O.2       0 UNK        -0.5240 
      4 N         -81.5962   24.6464  -72.2185 N.am      1 UNK        -0.4739 
      5 CA        -81.8893   26.0473  -72.5425 C.3       1 UNK         0.0864 
      6 C6        -81.6155   27.0056  -71.3481 C.3       11 UNK        -0.0881 
      7 S7        -80.1808   26.5583  -70.3014 S.3       11 UNK        -0.2682 
      8 C8        -79.4407   28.1783  -69.9360 C.3       11 UNK         0.0289 
      9 C9        -78.3643   28.5494  -70.9435 C.ar      11 UNK        -0.0687 
     10 C10       -78.6148   29.4938  -71.9439 C.ar      11 UNK        -0.0823 
     11 C11       -77.6048   29.8705  -72.8367 C.ar      11 UNK        -0.0830 
     12 C12       -76.3361   29.2930  -72.7133 C.ar      11 UNK        -0.1021 
     13 C13       -76.0841   28.3242  -71.7382 C.ar      11 UNK        -0.0753 
     14 C14       -77.1000   27.9610  -70.8525 C.ar      11 UNK        -0.0933 
     15 C15       -74.7264   27.6434  -71.6643 C.3       11 UNK         0.0166 
     16 S16       -73.6664   28.2921  -70.3368 S.3       11 UNK        -0.2615 
     17 C17       -73.4374   30.0521  -70.7874 C.3       11 UNK        -0.0865 
     18 CA        -72.1954   30.3888  -71.6600 C.3       10 UNK         0.0862 
     19 C         -70.8540   29.8557  -71.0724 C.2       10 UNK         0.5551 
     20 N         -70.0768   29.0652  -71.8031 N.am      10 UNK        -0.7319 
     21 O         -70.5055   30.1839  -69.9407 O.2       10 UNK        -0.5018 
     22 N         -72.4175   30.1027  -73.0904 N.am      10 UNK        -0.4509 
     23 C         -71.8147   30.7637  -74.0889 C.2       10 UNK         0.4899 
     24 O         -71.0029   31.6735  -73.9104 O.2       10 UNK        -0.4839 
     25 CA        -72.1637   30.3246  -75.5234 C.3       9 UNK         0.0222 
     26 CB        -71.5936   31.2777  -76.5913 C.3       9 UNK        -0.1966 
     27 N         -71.6800   28.9689  -75.7915 N.am      9 UNK        -0.4218 
     28 C         -72.3521   27.8571  -75.4771 C.2       9 UNK         0.5020 
     29 O         -73.4394   27.8664  -74.9043 O.2       9 UNK        -0.5274 
     30 CA        -71.6783   26.5216  -75.7976 C.3       8 UNK         0.0270 
     31 CB        -70.9291   25.9836  -74.5645 C.3       8 UNK        -0.1976 
     32 N         -72.6909   25.5590  -76.2283 N.am      8 UNK        -0.4313 
     33 C         -72.4513   24.5164  -77.0339 C.2       8 UNK         0.5041 
     34 O         -71.3337   24.2336  -77.4697 O.2       8 UNK        -0.5577 
     35 CA        -73.6487   23.6427  -77.4427 C.3       7 UNK         0.0284 
     36 CB        -74.0026   22.6337  -76.3377 C.3       7 UNK        -0.1958 
     37 N         -74.8267   24.4350  -77.7987 N.am      7 UNK        -0.4454 
     38 C         -74.9568   25.1236  -78.9421 C.2       7 UNK         0.5089 
     39 O         -74.1082   25.1356  -79.8345 O.2       7 UNK        -0.5125 
     40 CA        -76.2526   25.9327  -79.1344 C.3       6 UNK         0.0408 
     41 CB        -77.3268   25.0725  -79.8179 C.3       6 UNK        -0.1791 
     42 N         -76.7821   26.4692  -77.8800 N.am      6 UNK        -0.4762 
     43 C         -76.2002   27.4416  -77.1638 C.2       6 UNK         0.5007 
     44 O         -75.2069   28.0598  -77.5472 O.2       6 UNK        -0.5032 
     45 CA        -76.8144   27.7523  -75.7816 C.3       5 UNK         0.0783 
     46 C46       -77.9083   28.8506  -75.8639 C.3       11 UNK        -0.0857 
     47 S47       -77.2137   30.5092  -75.5613 S.3       11 UNK        -0.2512 
     48 C48       -77.8968   30.9144  -73.9140 C.3       11 UNK         0.0225 
     49 N         -77.2991   26.5553  -75.0871 N.am      5 UNK        -0.4615 
     50 C         -76.5365   25.5197  -74.7100 C.2       4 UNK         0.5053 
     51 O         -75.3215   25.4570  -74.8854 O.2       4 UNK        -0.5105 
     52 CA        -77.2682   24.3135  -74.1035 C.3       4 UNK         0.0263 
     53 CB        -77.5715   24.5360  -72.6125 C.3       4 UNK        -0.1981 
     54 N         -78.5015   24.0286  -74.8405 N.am      4 UNK        -0.4224 
     55 C         -78.5256   23.4979  -76.0734 C.2       3 UNK         0.4895 
     56 O         -77.5222   23.0954  -76.6615 O.2       3 UNK        -0.5091 
     57 CA        -79.8834   23.4468  -76.7945 C.3       3 UNK         0.0250 
     58 CB        -80.5961   22.1120  -76.5286 C.3       3 UNK        -0.1996 
     59 N         -80.7558   24.5676  -76.4305 N.am      3 UNK        -0.4254 
     60 C         -80.5412   25.8313  -76.8301 C.2       2 UNK         0.5004 
     61 O         -79.6252   26.1566  -77.5828 O.2       2 UNK        -0.5226 
     62 CA        -81.4620   26.9295  -76.2685 C.3       2 UNK         0.0269 
     63 CB        -82.6521   27.1664  -77.2110 C.3       2 UNK        -0.1926 
     64 N         -81.9570   26.6490  -74.9182 N.am      2 UNK        -0.4687 
     65 C         -81.1785   26.4834  -73.8397 C.2       1 UNK         0.5165 
     66 O         -79.9527   26.5962  -73.8678 O.2       1 UNK        -0.5079 
     67 H67       -81.1352   22.2665  -71.4110 H         1 UNK         0.0900 
     68 H68       -82.1811   21.4904  -72.5999 H         1 UNK         0.0900 
     69 H69       -80.5108   21.8866  -73.0176 H         1 UNK         0.0900 
     70 H70       -81.1060   24.5226  -71.3429 H         1 UNK         0.2959 
     71 H71       -82.9629   26.0950  -72.7380 H         1 UNK         0.1079 
     72 H72       -82.4867   27.0043  -70.6911 H         1 UNK         0.0837 
     73 H73       -81.5205   28.0379  -71.6909 H         1 UNK         0.0837 
     74 H74       -80.2151   28.9452  -69.8851 H         1 UNK         0.0685 
     75 H75       -78.9952   28.1374  -68.9409 H         1 UNK         0.0685 
     76 H76       -79.5954   29.9430  -72.0190 H         1 UNK         0.1434 
     77 H77       -75.5462   29.5828  -73.3923 H         1 UNK         0.1329 
     78 H78       -76.9067   27.2185  -70.0905 H         1 UNK         0.1335 
     79 H79       -74.2005   27.7336  -72.6090 H         1 UNK         0.0680 
     80 H80       -74.8690   26.5733  -71.5075 H         1 UNK         0.0680 
     81 H81       -73.3573   30.5987  -69.8460 H         1 UNK         0.1032 
     82 H82       -74.3411   30.4450  -71.2514 H         1 UNK         0.1032 
     83 H83       -72.0966   31.4742  -71.5904 H         1 UNK         0.0461 
     84 H84       -69.2076   28.7316  -71.4176 H         1 UNK         0.3453 
     85 H85       -70.3528   28.8061  -72.7351 H         1 UNK         0.3453 
     86 H86       -73.0204   29.3224  -73.3219 H         1 UNK         0.2984 
     87 H87       -73.2522   30.3477  -75.6161 H         1 UNK         0.0554 
     88 H88       -71.9475   32.2973  -76.4328 H         1 UNK         0.0847 
     89 H89       -71.9061   30.9817  -77.5929 H         1 UNK         0.0847 
     90 H90       -70.5033   31.3045  -76.5740 H         1 UNK         0.0847 
     91 H91       -70.7677   28.8889  -76.2181 H         1 UNK         0.3141 
     92 H92       -70.9677   26.6813  -76.6116 H         1 UNK         0.0743 
     93 H93       -71.6088   25.8084  -73.7291 H         1 UNK         0.0784 
     94 H94       -70.4217   25.0444  -74.7852 H         1 UNK         0.0784 
     95 H95       -70.1692   26.6893  -74.2271 H         1 UNK         0.0784 
     96 H96       -73.6337   25.7317  -75.8791 H         1 UNK         0.3213 
     97 H97       -73.3520   23.0710  -78.3251 H         1 UNK         0.0855 
     98 H98       -74.2799   23.1258  -75.4060 H         1 UNK         0.0814 
     99 H99       -73.1531   21.9854  -76.1197 H         1 UNK         0.0814 
    100 H100      -74.8322   21.9925  -76.6366 H         1 UNK         0.0814 
    101 H101      -75.5762   24.4738  -77.1199 H         1 UNK         0.3105 
    102 H102      -76.0253   26.7747  -79.7916 H         1 UNK         0.0547 
    103 H103      -78.2315   25.6482  -80.0138 H         1 UNK         0.0837 
    104 H104      -77.6029   24.2119  -79.2083 H         1 UNK         0.0837 
    105 H105      -76.9704   24.6923  -80.7761 H         1 UNK         0.0837 
    106 H106      -77.6690   26.0931  -77.5562 H         1 UNK         0.3020 
    107 H107      -75.9879   28.1172  -75.1717 H         1 UNK         0.1245 
    108 H108      -78.6917   28.6724  -75.1260 H         1 UNK         0.0781 
    109 H109      -78.4210   28.8463  -76.8280 H         1 UNK         0.0781 
    110 H110      -78.9727   31.0618  -74.0201 H         1 UNK         0.0836 
    111 H111      -77.4864   31.8719  -73.5914 H         1 UNK         0.0836 
    112 H112      -78.2818   26.5452  -74.8296 H         1 UNK         0.3022 
    113 H113      -76.6118   23.4444  -74.1858 H         1 UNK         0.0747 
    114 H114      -78.1063   23.6891  -72.1828 H         1 UNK         0.0793 
    115 H115      -76.6474   24.6582  -72.0465 H         1 UNK         0.0793 
    116 H116      -78.1687   25.4316  -72.4419 H         1 UNK         0.0793 
    117 H117      -79.3562   24.4050  -74.4552 H         1 UNK         0.3047 
    118 H118      -79.6862   23.5091  -77.8670 H         1 UNK         0.0822 
    119 H119      -81.5439   22.0545  -77.0641 H         1 UNK         0.0807 
    120 H120      -80.8004   21.9618  -75.4694 H         1 UNK         0.0807 
    121 H121      -79.9840   21.2729  -76.8623 H         1 UNK         0.0807 
    122 H122      -81.5112   24.3730  -75.7794 H         1 UNK         0.2946 
    123 H123      -80.8746   27.8489  -76.2211 H         1 UNK         0.1144 
    124 H124      -83.2946   26.2876  -77.2799 H         1 UNK         0.0793 
    125 H125      -82.3093   27.3996  -78.2202 H         1 UNK         0.0793 
    126 H126      -83.2630   28.0053  -76.8769 H         1 UNK         0.0793 
    127 H127      -82.9513   26.4948  -74.8280 H         1 UNK         0.2896 
@<TRIPOS>BOND
     1    1    2 1    
     2    1   67 1    
     3    1   68 1    
     4    1   69 1    
     5    2    3 2    
     6    2    4 am   BACKBONE|DICT|INTERRES
     7    4    5 1    
     8    4   70 1    
     9    5    6 1    
    10    5   65 1    
    11    5   71 1    
    12    6    7 1    
    13    6   72 1    
    14    6   73 1    
    15    7    8 1    
    16    8    9 1    
    17    8   74 1    
    18    8   75 1    
    19    9   10 ar   
    20    9   14 ar   
    21   10   11 ar   
    22   10   76 1    
    23   11   12 ar   
    24   11   48 1    
    25   12   13 ar   
    26   12   77 1    
    27   13   14 ar   
    28   13   15 1    
    29   14   78 1    
    30   15   16 1    
    31   15   79 1    
    32   15   80 1    
    33   16   17 1    
    34   17   18 1    
    35   17   81 1    
    36   17   82 1    
    37   18   19 1    
    38   18   22 1    
    39   18   83 1    
    40   19   20 am   BACKBONE|DICT|INTERRES
    41   19   21 2    
    42   20   84 1    
    43   20   85 1    
    44   22   23 am   BACKBONE|DICT|INTERRES
    45   22   86 1    
    46   23   24 2    
    47   23   25 1    
    48   25   26 1    
    49   25   27 1    
    50   25   87 1    
    51   26   88 1    
    52   26   89 1    
    53   26   90 1    
    54   27   28 am   BACKBONE|DICT|INTERRES
    55   27   91 1    
    56   28   29 2    
    57   28   30 1    
    58   30   31 1    
    59   30   32 1    
    60   30   92 1    
    61   31   93 1    
    62   31   94 1    
    63   31   95 1    
    64   32   33 am   BACKBONE|DICT|INTERRES
    65   32   96 1    
    66   33   34 2    
    67   33   35 1    
    68   35   36 1    
    69   35   37 1    
    70   35   97 1    
    71   36   98 1    
    72   36   99 1    
    73   36  100 1    
    74   37   38 am   BACKBONE|DICT|INTERRES
    75   37  101 1    
    76   38   39 2    
    77   38   40 1    
    78   40   41 1    
    79   40   42 1    
    80   40  102 1    
    81   41  103 1    
    82   41  104 1    
    83   41  105 1    
    84   42   43 am   BACKBONE|DICT|INTERRES
    85   42  106 1    
    86   43   44 2    
    87   43   45 1    
    88   45   46 1    
    89   45   49 1    
    90   45  107 1    
    91   46   47 1    
    92   46  108 1    
    93   46  109 1    
    94   47   48 1    
    95   48  110 1    
    96   48  111 1    
    97   49   50 am   BACKBONE|DICT|INTERRES
    98   49  112 1    
    99   50   51 2    
   100   50   52 1    
   101   52   53 1    
   102   52   54 1    
   103   52  113 1    
   104   53  114 1    
   105   53  115 1    
   106   53  116 1    
   107   54   55 am   BACKBONE|DICT|INTERRES
   108   54  117 1    
   109   55   56 2    
   110   55   57 1    
   111   57   58 1    
   112   57   59 1    
   113   57  118 1    
   114   58  119 1    
   115   58  120 1    
   116   58  121 1    
   117   59   60 am   BACKBONE|DICT|INTERRES
   118   59  122 1    
   119   60   61 2    
   120   60   62 1    
   121   62   63 1    
   122   62   64 1    
   123   62  123 1    
   124   63  124 1    
   125   63  125 1    
   126   63  126 1    
   127   64   65 am   BACKBONE|DICT|INTERRES
   128   64  127 1    
   129   65   66 2    
@<TRIPOS>SUBSTRUCTURE
     1 UNK         1 GROUP             0       ****    0 ROOT    
