@<TRIPOS>MOLECULE
3R135
127   129    1
SMALL
USER_CHARGES


@<TRIPOS>ATOM
      1 CA        -84.9267   28.6629  -74.8578 C.3       0 UNK        -0.1998 
      2 C         -83.5199   28.3178  -74.3927 C.2       0 UNK         0.4909 
      3 O         -82.6871   27.9218  -75.2074 O.2       0 UNK        -0.5240 
      4 N         -83.2500   28.4730  -73.0911 N.am      1 UNK        -0.4739 
      5 CA        -81.9704   28.1599  -72.4484 C.3       1 UNK         0.0864 
      6 C6        -81.8641   28.8165  -71.0454 C.3       11 UNK        -0.0881 
      7 S7        -81.9432   30.6413  -71.1260 S.3       11 UNK        -0.2682 
      8 C8        -80.3370   31.1491  -70.4160 C.3       11 UNK         0.0289 
      9 C9        -79.1330   30.5245  -71.1142 C.ar      11 UNK        -0.0687 
     10 C10       -79.0486   30.4998  -72.5109 C.ar      11 UNK        -0.0823 
     11 C11       -77.9756   29.8685  -73.1435 C.ar      11 UNK        -0.0830 
     12 C12       -76.9606   29.2969  -72.3749 C.ar      11 UNK        -0.1021 
     13 C13       -77.0144   29.3436  -70.9814 C.ar      11 UNK        -0.0753 
     14 C14       -78.1041   29.9551  -70.3542 C.ar      11 UNK        -0.0933 
     15 C15       -75.9000   28.7070  -70.1695 C.3       11 UNK         0.0166 
     16 S16       -74.5357   29.8819  -69.9087 S.3       11 UNK        -0.2615 
     17 C17       -73.1171   28.7458  -69.7221 C.3       11 UNK        -0.0865 
     18 CA        -72.0266   28.9459  -70.8192 C.3       10 UNK         0.0862 
     19 C         -70.7753   28.0410  -70.5923 C.2       10 UNK         0.5551 
     20 N         -70.2249   28.0282  -69.3850 N.am      10 UNK        -0.7319 
     21 O         -70.2689   27.3754  -71.4933 O.2       10 UNK        -0.5018 
     22 N         -72.5573   28.8945  -72.1944 N.am      10 UNK        -0.4509 
     23 C         -73.1418   27.8492  -72.7935 C.2       10 UNK         0.4899 
     24 O         -73.3766   26.7746  -72.2400 O.2       10 UNK        -0.4839 
     25 CA        -73.5494   28.0222  -74.2698 C.3       9 UNK         0.0222 
     26 CB        -73.7669   29.4892  -74.7115 C.3       9 UNK        -0.1966 
     27 N         -72.6140   27.3208  -75.1570 N.am      9 UNK        -0.4218 
     28 C         -71.3060   27.5807  -75.3164 C.2       9 UNK         0.5020 
     29 O         -70.7363   28.5562  -74.8246 O.2       9 UNK        -0.5274 
     30 CA        -70.4612   26.5882  -76.1373 C.3       8 UNK         0.0270 
     31 CB        -69.5634   25.7609  -75.2009 C.3       8 UNK        -0.1976 
     32 N         -71.2259   25.6686  -76.9834 N.am      8 UNK        -0.4313 
     33 C         -71.8044   25.9899  -78.1474 C.2       8 UNK         0.5041 
     34 O         -71.8332   27.1357  -78.5996 O.2       8 UNK        -0.5577 
     35 CA        -72.4303   24.8461  -78.9644 C.3       7 UNK         0.0284 
     36 CB        -72.2800   23.4467  -78.3292 C.3       7 UNK        -0.1958 
     37 N         -73.8486   25.1268  -79.1497 N.am      7 UNK        -0.4454 
     38 C         -74.4925   25.2003  -80.3213 C.2       7 UNK         0.5089 
     39 O         -73.9453   25.0356  -81.4127 O.2       7 UNK        -0.5125 
     40 CA        -76.0100   25.4793  -80.2852 C.3       6 UNK         0.0408 
     41 CB        -76.7943   24.2509  -80.7753 C.3       6 UNK        -0.1791 
     42 N         -76.4982   25.8467  -78.9537 N.am      6 UNK        -0.4762 
     43 C         -76.3550   27.0571  -78.3925 C.2       6 UNK         0.5007 
     44 O         -75.8885   28.0300  -78.9848 O.2       6 UNK        -0.5032 
     45 CA        -76.7739   27.2037  -76.9141 C.3       5 UNK         0.0783 
     46 C46       -78.1396   27.9295  -76.8199 C.3       11 UNK        -0.0857 
     47 S47       -78.7061   28.1515  -75.1056 S.3       11 UNK        -0.2512 
     48 C48       -77.9427   29.7318  -74.6529 C.3       11 UNK         0.0225 
     49 N         -76.7513   25.9277  -76.1807 N.am      5 UNK        -0.4615 
     50 C         -75.6486   25.1963  -75.9537 C.2       4 UNK         0.5053 
     51 O         -74.5281   25.5301  -76.3374 O.2       4 UNK        -0.5105 
     52 CA        -75.7917   23.8629  -75.2006 C.3       4 UNK         0.0263 
     53 CB        -75.3503   24.0397  -73.7390 C.3       4 UNK        -0.1981 
     54 N         -77.1370   23.2876  -75.2304 N.am      4 UNK        -0.4224 
     55 C         -77.8171   22.9203  -76.3273 C.2       3 UNK         0.4895 
     56 O         -77.3624   22.9864  -77.4698 O.2       3 UNK        -0.5091 
     57 CA        -79.2676   22.4412  -76.1125 C.3       3 UNK         0.0250 
     58 CB        -79.3294   20.9055  -76.0995 C.3       3 UNK        -0.1996 
     59 N         -79.8869   22.9652  -74.8853 N.am      3 UNK        -0.4254 
     60 C         -80.0942   24.2674  -74.6421 C.2       2 UNK         0.5004 
     61 O         -79.8339   25.1541  -75.4568 O.2       2 UNK        -0.5226 
     62 CA        -80.6062   24.6359  -73.2434 C.3       2 UNK         0.0269 
     63 CB        -79.5508   24.3159  -72.1650 C.3       2 UNK        -0.1926 
     64 N         -80.9228   26.0625  -73.1976 N.am      2 UNK        -0.4687 
     65 C         -81.7952   26.6305  -72.3584 C.2       1 UNK         0.5165 
     66 O         -82.4596   25.9951  -71.5359 O.2       1 UNK        -0.5079 
     67 H67       -85.5544   29.0097  -74.0371 H         1 UNK         0.0900 
     68 H68       -85.4005   27.7873  -75.3008 H         1 UNK         0.0900 
     69 H69       -84.8900   29.4489  -75.6117 H         1 UNK         0.0900 
     70 H70       -83.9758   28.7985  -72.4689 H         1 UNK         0.2959 
     71 H71       -81.1663   28.5592  -73.0709 H         1 UNK         0.1079 
     72 H72       -82.6716   28.4728  -70.3961 H         1 UNK         0.0837 
     73 H73       -80.9382   28.5137  -70.5529 H         1 UNK         0.0837 
     74 H74       -80.2533   32.2348  -70.4767 H         1 UNK         0.0685 
     75 H75       -80.3381   30.8980  -69.3541 H         1 UNK         0.0685 
     76 H76       -79.8417   30.9318  -73.1058 H         1 UNK         0.1434 
     77 H77       -76.1381   28.7928  -72.8608 H         1 UNK         0.1329 
     78 H78       -78.1534   29.9781  -69.2741 H         1 UNK         0.1335 
     79 H79       -76.2729   28.3645  -69.2031 H         1 UNK         0.0680 
     80 H80       -75.5397   27.8200  -70.6929 H         1 UNK         0.0680 
     81 H81       -73.4576   27.7093  -69.7084 H         1 UNK         0.1032 
     82 H82       -72.7005   28.9279  -68.7307 H         1 UNK         0.1032 
     83 H83       -71.6508   29.9647  -70.7176 H         1 UNK         0.0461 
     84 H84       -69.4085   27.4573  -69.2300 H         1 UNK         0.3453 
     85 H85       -70.5910   28.5887  -68.6320 H         1 UNK         0.3453 
     86 H86       -72.3618   29.7064  -72.7610 H         1 UNK         0.2984 
     87 H87       -74.5087   27.5144  -74.3740 H         1 UNK         0.0554 
     88 H88       -74.1840   29.5336  -75.7174 H         1 UNK         0.0847 
     89 H89       -72.8451   30.0704  -74.7186 H         1 UNK         0.0847 
     90 H90       -74.4664   30.0023  -74.0510 H         1 UNK         0.0847 
     91 H91       -73.0043   26.5079  -75.6261 H         1 UNK         0.3141 
     92 H92       -69.8139   27.1828  -76.7857 H         1 UNK         0.0743 
     93 H93       -70.1510   25.1325  -74.5301 H         1 UNK         0.0784 
     94 H94       -68.8865   25.1169  -75.7626 H         1 UNK         0.0784 
     95 H95       -68.9463   26.4094  -74.5768 H         1 UNK         0.0784 
     96 H96       -71.2699   24.7063  -76.6806 H         1 UNK         0.3213 
     97 H97       -71.9135   24.8391  -79.9263 H         1 UNK         0.0855 
     98 H98       -72.7815   23.3777  -77.3628 H         1 UNK         0.0814 
     99 H99       -71.2310   23.1814  -78.1901 H         1 UNK         0.0814 
    100 H100      -72.7135   22.6819  -78.9741 H         1 UNK         0.0814 
    101 H101      -74.3570   25.3384  -78.2971 H         1 UNK         0.3105 
    102 H102      -76.2078   26.3046  -80.9723 H         1 UNK         0.0547 
    103 H103      -76.4974   23.9750  -81.7881 H         1 UNK         0.0837 
    104 H104      -76.6225   23.3825  -80.1381 H         1 UNK         0.0837 
    105 H105      -77.8666   24.4453  -80.7956 H         1 UNK         0.0837 
    106 H106      -76.8837   25.0960  -78.3925 H         1 UNK         0.3020 
    107 H107      -76.0219   27.8456  -76.4512 H         1 UNK         0.1245 
    108 H108      -78.0986   28.9060  -77.3068 H         1 UNK         0.0781 
    109 H109      -78.9085   27.3588  -77.3448 H         1 UNK         0.0781 
    110 H110      -78.4767   30.5531  -75.1333 H         1 UNK         0.0836 
    111 H111      -76.9133   29.7697  -75.0116 H         1 UNK         0.0836 
    112 H112      -77.6475   25.6021  -75.8372 H         1 UNK         0.3022 
    113 H113      -75.1193   23.1491  -75.6809 H         1 UNK         0.0747 
    114 H114      -75.3567   23.0909  -73.2023 H         1 UNK         0.0793 
    115 H115      -74.3341   24.4337  -73.6821 H         1 UNK         0.0793 
    116 H116      -75.9963   24.7362  -73.2025 H         1 UNK         0.0793 
    117 H117      -77.6007   23.1884  -74.3400 H         1 UNK         0.3047 
    118 H118      -79.8541   22.8015  -76.9605 H         1 UNK         0.0822 
    119 H119      -80.3580   20.5494  -76.0393 H         1 UNK         0.0807 
    120 H120      -78.7771   20.4850  -75.2581 H         1 UNK         0.0807 
    121 H121      -78.8985   20.4904  -77.0119 H         1 UNK         0.0807 
    122 H122      -80.1282   22.2882  -74.1751 H         1 UNK         0.2946 
    123 H123      -81.5140   24.0568  -73.0580 H         1 UNK         0.1144 
    124 H124      -79.2994   23.2550  -72.1507 H         1 UNK         0.0793 
    125 H125      -79.9133   24.5675  -71.1681 H         1 UNK         0.0793 
    126 H126      -78.6270   24.8719  -72.3312 H         1 UNK         0.0793 
    127 H127      -80.4791   26.6143  -73.9252 H         1 UNK         0.2896 
@<TRIPOS>BOND
     1    1    2 1    
     2    1   67 1    
     3    1   68 1    
     4    1   69 1    
     5    2    3 2    
     6    2    4 am   BACKBONE|DICT|INTERRES
     7    4    5 1    
     8    4   70 1    
     9    5    6 1    
    10    5   65 1    
    11    5   71 1    
    12    6    7 1    
    13    6   72 1    
    14    6   73 1    
    15    7    8 1    
    16    8    9 1    
    17    8   74 1    
    18    8   75 1    
    19    9   10 ar   
    20    9   14 ar   
    21   10   11 ar   
    22   10   76 1    
    23   11   12 ar   
    24   11   48 1    
    25   12   13 ar   
    26   12   77 1    
    27   13   14 ar   
    28   13   15 1    
    29   14   78 1    
    30   15   16 1    
    31   15   79 1    
    32   15   80 1    
    33   16   17 1    
    34   17   18 1    
    35   17   81 1    
    36   17   82 1    
    37   18   19 1    
    38   18   22 1    
    39   18   83 1    
    40   19   20 am   BACKBONE|DICT|INTERRES
    41   19   21 2    
    42   20   84 1    
    43   20   85 1    
    44   22   23 am   BACKBONE|DICT|INTERRES
    45   22   86 1    
    46   23   24 2    
    47   23   25 1    
    48   25   26 1    
    49   25   27 1    
    50   25   87 1    
    51   26   88 1    
    52   26   89 1    
    53   26   90 1    
    54   27   28 am   BACKBONE|DICT|INTERRES
    55   27   91 1    
    56   28   29 2    
    57   28   30 1    
    58   30   31 1    
    59   30   32 1    
    60   30   92 1    
    61   31   93 1    
    62   31   94 1    
    63   31   95 1    
    64   32   33 am   BACKBONE|DICT|INTERRES
    65   32   96 1    
    66   33   34 2    
    67   33   35 1    
    68   35   36 1    
    69   35   37 1    
    70   35   97 1    
    71   36   98 1    
    72   36   99 1    
    73   36  100 1    
    74   37   38 am   BACKBONE|DICT|INTERRES
    75   37  101 1    
    76   38   39 2    
    77   38   40 1    
    78   40   41 1    
    79   40   42 1    
    80   40  102 1    
    81   41  103 1    
    82   41  104 1    
    83   41  105 1    
    84   42   43 am   BACKBONE|DICT|INTERRES
    85   42  106 1    
    86   43   44 2    
    87   43   45 1    
    88   45   46 1    
    89   45   49 1    
    90   45  107 1    
    91   46   47 1    
    92   46  108 1    
    93   46  109 1    
    94   47   48 1    
    95   48  110 1    
    96   48  111 1    
    97   49   50 am   BACKBONE|DICT|INTERRES
    98   49  112 1    
    99   50   51 2    
   100   50   52 1    
   101   52   53 1    
   102   52   54 1    
   103   52  113 1    
   104   53  114 1    
   105   53  115 1    
   106   53  116 1    
   107   54   55 am   BACKBONE|DICT|INTERRES
   108   54  117 1    
   109   55   56 2    
   110   55   57 1    
   111   57   58 1    
   112   57   59 1    
   113   57  118 1    
   114   58  119 1    
   115   58  120 1    
   116   58  121 1    
   117   59   60 am   BACKBONE|DICT|INTERRES
   118   59  122 1    
   119   60   61 2    
   120   60   62 1    
   121   62   63 1    
   122   62   64 1    
   123   62  123 1    
   124   63  124 1    
   125   63  125 1    
   126   63  126 1    
   127   64   65 am   BACKBONE|DICT|INTERRES
   128   64  127 1    
   129   65   66 2    
@<TRIPOS>SUBSTRUCTURE
     1 UNK         1 GROUP             0       ****    0 ROOT    
