@<TRIPOS>MOLECULE
3R135
127   129    1
SMALL
USER_CHARGES


@<TRIPOS>ATOM
      1 CA        -84.9113   30.6327  -74.6992 C.3       0 UNK        -0.1998 
      2 C         -83.7324   29.7109  -74.9742 C.2       0 UNK         0.4909 
      3 O         -83.4783   29.3701  -76.1304 O.2       0 UNK        -0.5240 
      4 N         -83.0059   29.3135  -73.9224 N.am      1 UNK        -0.4739 
      5 CA        -81.8660   28.3914  -73.9921 C.3       1 UNK         0.0864 
      6 C6        -81.0006   28.4450  -72.7083 C.3       11 UNK        -0.0881 
      7 S7        -80.3397   30.1149  -72.3746 S.3       11 UNK        -0.2682 
      8 C8        -79.7840   29.9531  -70.6467 C.3       11 UNK         0.0289 
      9 C9        -78.4904   29.1580  -70.5466 C.ar      11 UNK        -0.0687 
     10 C10       -78.5304   27.7649  -70.4516 C.ar      11 UNK        -0.0823 
     11 C11       -77.3483   27.0195  -70.4210 C.ar      11 UNK        -0.0830 
     12 C12       -76.1182   27.6843  -70.4171 C.ar      11 UNK        -0.1021 
     13 C13       -76.0633   29.0800  -70.4815 C.ar      11 UNK        -0.0753 
     14 C14       -77.2536   29.8113  -70.5585 C.ar      11 UNK        -0.0933 
     15 C15       -74.7199   29.7951  -70.4361 C.3       11 UNK         0.0166 
     16 S16       -73.6848   29.4357  -71.8922 S.3       11 UNK        -0.2615 
     17 C17       -72.1819   30.3807  -71.4615 C.3       11 UNK        -0.0865 
     18 CA        -71.7426   31.3540  -72.5869 C.3       10 UNK         0.0862 
     19 C         -70.7154   32.3939  -72.0458 C.2       10 UNK         0.5551 
     20 N         -69.4651   32.3954  -72.4928 N.am      10 UNK        -0.7319 
     21 O         -71.0651   33.2183  -71.2047 O.2       10 UNK        -0.5018 
     22 N         -71.2975   30.6207  -73.7851 N.am      10 UNK        -0.4509 
     23 C         -71.1826   31.1471  -75.0121 C.2       10 UNK         0.4899 
     24 O         -71.5091   32.3005  -75.2938 O.2       10 UNK        -0.4839 
     25 CA        -70.5760   30.2552  -76.1128 C.3       9 UNK         0.0222 
     26 CB        -69.1339   30.6935  -76.4196 C.3       9 UNK        -0.1966 
     27 N         -70.5795   28.8266  -75.7788 N.am      9 UNK        -0.4218 
     28 C         -71.6508   28.0305  -75.8829 C.2       9 UNK         0.5020 
     29 O         -72.7516   28.4112  -76.2878 O.2       9 UNK        -0.5274 
     30 CA        -71.4583   26.5789  -75.4206 C.3       8 UNK         0.0270 
     31 CB        -71.7522   26.4545  -73.9154 C.3       8 UNK        -0.1976 
     32 N         -72.3609   25.6971  -76.1591 N.am      8 UNK        -0.4313 
     33 C         -72.0278   25.0166  -77.2656 C.2       8 UNK         0.5041 
     34 O         -70.8871   24.9930  -77.7312 O.2       8 UNK        -0.5577 
     35 CA        -73.1356   24.2196  -77.9849 C.3       7 UNK         0.0284 
     36 CB        -73.0597   22.7312  -77.6087 C.3       7 UNK        -0.1958 
     37 N         -74.4821   24.7157  -77.7008 N.am      7 UNK        -0.4454 
     38 C         -74.9735   25.8837  -78.1361 C.2       7 UNK         0.5089 
     39 O         -74.3977   26.5999  -78.9559 O.2       7 UNK        -0.5125 
     40 CA        -76.3247   26.3462  -77.5548 C.3       6 UNK         0.0408 
     41 CB        -77.4324   26.2260  -78.6137 C.3       6 UNK        -0.1791 
     42 N         -76.7524   25.6457  -76.3370 N.am      6 UNK        -0.4762 
     43 C         -76.0925   25.6082  -75.1690 C.2       6 UNK         0.5007 
     44 O         -74.9994   26.1398  -74.9855 O.2       6 UNK        -0.5032 
     45 CA        -76.7373   24.7980  -74.0310 C.3       5 UNK         0.0783 
     46 C46       -77.7598   25.6655  -73.2653 C.3       11 UNK        -0.0857 
     47 S47       -78.4299   24.8270  -71.7871 S.3       11 UNK        -0.2512 
     48 C48       -77.3937   25.4960  -70.4376 C.3       11 UNK         0.0225 
     49 N         -77.3259   23.5558  -74.5372 N.am      5 UNK        -0.4615 
     50 C         -76.6224   22.4856  -74.9278 C.2       4 UNK         0.5053 
     51 O         -75.3951   22.4172  -74.8730 O.2       4 UNK        -0.5105 
     52 CA        -77.4223   21.2966  -75.4865 C.3       4 UNK         0.0263 
     53 CB        -77.8695   20.3670  -74.3469 C.3       4 UNK        -0.1981 
     54 N         -78.5929   21.7198  -76.2590 N.am      4 UNK        -0.4224 
     55 C         -78.5326   22.3120  -77.4607 C.2       3 UNK         0.4895 
     56 O         -77.4865   22.5005  -78.0817 O.2       3 UNK        -0.5091 
     57 CA        -79.8641   22.8066  -78.0558 C.3       3 UNK         0.0250 
     58 CB        -80.5332   21.6940  -78.8788 C.3       3 UNK        -0.1996 
     59 N         -80.8111   23.3150  -77.0538 N.am      3 UNK        -0.4254 
     60 C         -80.5772   24.3690  -76.2605 C.2       2 UNK         0.5004 
     61 O         -79.5201   25.0048  -76.2625 O.2       2 UNK        -0.5226 
     62 CA        -81.6771   24.7545  -75.2669 C.3       2 UNK         0.0269 
     63 CB        -81.6432   23.8278  -74.0358 C.3       2 UNK        -0.1926 
     64 N         -81.4517   26.1426  -74.8695 N.am      2 UNK        -0.4687 
     65 C         -82.3357   26.9462  -74.2707 C.2       1 UNK         0.5165 
     66 O         -83.4625   26.5811  -73.9230 O.2       1 UNK        -0.5079 
     67 H67       -85.0090   30.8640  -73.6386 H         1 UNK         0.0900 
     68 H68       -85.8379   30.1653  -75.0311 H         1 UNK         0.0900 
     69 H69       -84.7889   31.5704  -75.2406 H         1 UNK         0.0900 
     70 H70       -83.2636   29.6168  -72.9944 H         1 UNK         0.2959 
     71 H71       -81.2427   28.7020  -74.8342 H         1 UNK         0.1079 
     72 H72       -81.5790   28.1113  -71.8444 H         1 UNK         0.0837 
     73 H73       -80.1531   27.7628  -72.7962 H         1 UNK         0.0837 
     74 H74       -79.6379   30.9515  -70.2316 H         1 UNK         0.0685 
     75 H75       -80.5669   29.4874  -70.0460 H         1 UNK         0.0685 
     76 H76       -79.4835   27.2543  -70.4465 H         1 UNK         0.1434 
     77 H77       -75.1969   27.1187  -70.3796 H         1 UNK         0.1329 
     78 H78       -77.2200   30.8904  -70.6231 H         1 UNK         0.1335 
     79 H79       -74.8624   30.8745  -70.3604 H         1 UNK         0.0680 
     80 H80       -74.1890   29.4881  -69.5337 H         1 UNK         0.0680 
     81 H81       -71.3803   29.6780  -71.2274 H         1 UNK         0.1032 
     82 H82       -72.3692   30.9296  -70.5363 H         1 UNK         0.1032 
     83 H83       -72.6196   31.9377  -72.8744 H         1 UNK         0.0461 
     84 H84       -68.8136   33.0765  -72.1355 H         1 UNK         0.3453 
     85 H85       -69.1679   31.7248  -73.1822 H         1 UNK         0.3453 
     86 H86       -71.0210   29.6618  -73.6436 H         1 UNK         0.2984 
     87 H87       -71.1712   30.4042  -77.0164 H         1 UNK         0.0554 
     88 H88       -68.7156   30.1273  -77.2521 H         1 UNK         0.0847 
     89 H89       -68.4763   30.5618  -75.5595 H         1 UNK         0.0847 
     90 H90       -69.0964   31.7476  -76.6988 H         1 UNK         0.0847 
     91 H91       -69.7108   28.4357  -75.4414 H         1 UNK         0.3141 
     92 H92       -70.4220   26.2814  -75.5955 H         1 UNK         0.0743 
     93 H93       -71.0487   27.0445  -73.3271 H         1 UNK         0.0784 
     94 H94       -72.7549   26.8060  -73.6677 H         1 UNK         0.0784 
     95 H95       -71.6683   25.4211  -73.5788 H         1 UNK         0.0784 
     96 H96       -73.3382   25.7470  -75.8802 H         1 UNK         0.3213 
     97 H97       -72.9608   24.3106  -79.0592 H         1 UNK         0.0855 
     98 H98       -72.0845   22.3143  -77.8640 H         1 UNK         0.0814 
     99 H99       -73.8114   22.1469  -78.1400 H         1 UNK         0.0814 
    100 H100      -73.2091   22.5778  -76.5392 H         1 UNK         0.0814 
    101 H101      -75.0391   24.1835  -77.0468 H         1 UNK         0.3105 
    102 H102      -76.2136   27.4009  -77.2959 H         1 UNK         0.0547 
    103 H103      -77.1720   26.7767  -79.5186 H         1 UNK         0.0837 
    104 H104      -77.6002   25.1877  -78.9008 H         1 UNK         0.0837 
    105 H105      -78.3770   26.6309  -78.2504 H         1 UNK         0.0837 
    106 H106      -77.6763   25.2188  -76.3723 H         1 UNK         0.3020 
    107 H107      -75.9348   24.5339  -73.3377 H         1 UNK         0.1245 
    108 H108      -78.6017   25.9206  -73.9097 H         1 UNK         0.0781 
    109 H109      -77.3123   26.6195  -72.9841 H         1 UNK         0.0781 
    110 H110      -76.3896   25.0803  -70.5356 H         1 UNK         0.0836 
    111 H111      -77.7826   25.1413  -69.4824 H         1 UNK         0.0836 
    112 H112      -78.3290   23.5485  -74.6415 H         1 UNK         0.3022 
    113 H113      -76.7608   20.7331  -76.1485 H         1 UNK         0.0747 
    114 H114      -78.3781   19.4830  -74.7321 H         1 UNK         0.0793 
    115 H115      -77.0117   20.0193  -73.7694 H         1 UNK         0.0793 
    116 H116      -78.5458   20.8698  -73.6541 H         1 UNK         0.0793 
    117 H117      -79.4984   21.5894  -75.8326 H         1 UNK         0.3047 
    118 H118      -79.6284   23.6322  -78.7309 H         1 UNK         0.0822 
    119 H119      -81.4238   22.0594  -79.3906 H         1 UNK         0.0807 
    120 H120      -80.8262   20.8484  -78.2553 H         1 UNK         0.0807 
    121 H121      -79.8554   21.3145  -79.6449 H         1 UNK         0.0807 
    122 H122      -81.6994   22.8383  -76.9871 H         1 UNK         0.2946 
    123 H123      -82.6457   24.6794  -75.7665 H         1 UNK         0.1144 
    124 H124      -82.4231   24.0843  -73.3191 H         1 UNK         0.0793 
    125 H125      -80.6860   23.8827  -73.5174 H         1 UNK         0.0793 
    126 H126      -81.8023   22.7870  -74.3199 H         1 UNK         0.0793 
    127 H127      -80.5495   26.4996  -75.1615 H         1 UNK         0.2896 
@<TRIPOS>BOND
     1    1    2 1    
     2    1   67 1    
     3    1   68 1    
     4    1   69 1    
     5    2    3 2    
     6    2    4 am   BACKBONE|DICT|INTERRES
     7    4    5 1    
     8    4   70 1    
     9    5    6 1    
    10    5   65 1    
    11    5   71 1    
    12    6    7 1    
    13    6   72 1    
    14    6   73 1    
    15    7    8 1    
    16    8    9 1    
    17    8   74 1    
    18    8   75 1    
    19    9   10 ar   
    20    9   14 ar   
    21   10   11 ar   
    22   10   76 1    
    23   11   12 ar   
    24   11   48 1    
    25   12   13 ar   
    26   12   77 1    
    27   13   14 ar   
    28   13   15 1    
    29   14   78 1    
    30   15   16 1    
    31   15   79 1    
    32   15   80 1    
    33   16   17 1    
    34   17   18 1    
    35   17   81 1    
    36   17   82 1    
    37   18   19 1    
    38   18   22 1    
    39   18   83 1    
    40   19   20 am   BACKBONE|DICT|INTERRES
    41   19   21 2    
    42   20   84 1    
    43   20   85 1    
    44   22   23 am   BACKBONE|DICT|INTERRES
    45   22   86 1    
    46   23   24 2    
    47   23   25 1    
    48   25   26 1    
    49   25   27 1    
    50   25   87 1    
    51   26   88 1    
    52   26   89 1    
    53   26   90 1    
    54   27   28 am   BACKBONE|DICT|INTERRES
    55   27   91 1    
    56   28   29 2    
    57   28   30 1    
    58   30   31 1    
    59   30   32 1    
    60   30   92 1    
    61   31   93 1    
    62   31   94 1    
    63   31   95 1    
    64   32   33 am   BACKBONE|DICT|INTERRES
    65   32   96 1    
    66   33   34 2    
    67   33   35 1    
    68   35   36 1    
    69   35   37 1    
    70   35   97 1    
    71   36   98 1    
    72   36   99 1    
    73   36  100 1    
    74   37   38 am   BACKBONE|DICT|INTERRES
    75   37  101 1    
    76   38   39 2    
    77   38   40 1    
    78   40   41 1    
    79   40   42 1    
    80   40  102 1    
    81   41  103 1    
    82   41  104 1    
    83   41  105 1    
    84   42   43 am   BACKBONE|DICT|INTERRES
    85   42  106 1    
    86   43   44 2    
    87   43   45 1    
    88   45   46 1    
    89   45   49 1    
    90   45  107 1    
    91   46   47 1    
    92   46  108 1    
    93   46  109 1    
    94   47   48 1    
    95   48  110 1    
    96   48  111 1    
    97   49   50 am   BACKBONE|DICT|INTERRES
    98   49  112 1    
    99   50   51 2    
   100   50   52 1    
   101   52   53 1    
   102   52   54 1    
   103   52  113 1    
   104   53  114 1    
   105   53  115 1    
   106   53  116 1    
   107   54   55 am   BACKBONE|DICT|INTERRES
   108   54  117 1    
   109   55   56 2    
   110   55   57 1    
   111   57   58 1    
   112   57   59 1    
   113   57  118 1    
   114   58  119 1    
   115   58  120 1    
   116   58  121 1    
   117   59   60 am   BACKBONE|DICT|INTERRES
   118   59  122 1    
   119   60   61 2    
   120   60   62 1    
   121   62   63 1    
   122   62   64 1    
   123   62  123 1    
   124   63  124 1    
   125   63  125 1    
   126   63  126 1    
   127   64   65 am   BACKBONE|DICT|INTERRES
   128   64  127 1    
   129   65   66 2    
@<TRIPOS>SUBSTRUCTURE
     1 UNK         1 GROUP             0       ****    0 ROOT    
