@<TRIPOS>MOLECULE
3R135
127   129    1
SMALL
USER_CHARGES


@<TRIPOS>ATOM
      1 CA        -82.7226   26.1102  -71.2300 C.3       0 UNK        -0.1998 
      2 C         -82.7146   26.1961  -72.7487 C.2       0 UNK         0.4909 
      3 O         -82.9964   25.2038  -73.4206 O.2       0 UNK        -0.5240 
      4 N         -82.3989   27.3775  -73.2952 N.am      1 UNK        -0.4739 
      5 CA        -82.2267   27.6176  -74.7308 C.3       1 UNK         0.0864 
      6 C6        -82.2314   29.1394  -75.0564 C.3       11 UNK        -0.0881 
      7 S7        -80.6707   30.0600  -74.7924 S.3       11 UNK        -0.2682 
      8 C8        -80.6906   30.4287  -73.0104 C.3       11 UNK         0.0289 
      9 C9        -79.4194   29.9328  -72.3321 C.ar      11 UNK        -0.0687 
     10 C10       -79.3431   28.6264  -71.8405 C.ar      11 UNK        -0.0823 
     11 C11       -78.1893   28.1692  -71.1989 C.ar      11 UNK        -0.0830 
     12 C12       -77.0992   29.0301  -71.0491 C.ar      11 UNK        -0.1021 
     13 C13       -77.1531   30.3346  -71.5507 C.ar      11 UNK        -0.0753 
     14 C14       -78.3159   30.7803  -72.1897 C.ar      11 UNK        -0.0933 
     15 C15       -75.9653   31.2715  -71.3850 C.3       11 UNK         0.0166 
     16 S16       -74.7256   31.0311  -72.6961 S.3       11 UNK        -0.2615 
     17 C17       -73.8429   29.5474  -72.0984 C.3       11 UNK        -0.0865 
     18 CA        -72.4047   29.4342  -72.6732 C.3       10 UNK         0.0862 
     19 C         -71.5965   28.2740  -72.0201 C.2       10 UNK         0.5551 
     20 N         -70.8217   27.4936  -72.7662 N.am      10 UNK        -0.7319 
     21 O         -71.6559   28.0866  -70.8073 O.2       10 UNK        -0.5018 
     22 N         -72.4201   29.3488  -74.1405 N.am      10 UNK        -0.4509 
     23 C         -71.7209   30.1292  -74.9712 C.2       10 UNK         0.4899 
     24 O         -71.0071   31.0622  -74.5983 O.2       10 UNK        -0.4839 
     25 CA        -71.8419   29.8148  -76.4760 C.3       9 UNK         0.0222 
     26 CB        -70.6834   30.4081  -77.3061 C.3       9 UNK        -0.1966 
     27 N         -72.0100   28.3866  -76.7751 N.am      9 UNK        -0.4218 
     28 C         -71.1708   27.3824  -76.4724 C.2       9 UNK         0.5020 
     29 O         -70.1320   27.5429  -75.8289 O.2       9 UNK        -0.5274 
     30 CA        -71.5481   25.9586  -76.9376 C.3       8 UNK         0.0270 
     31 CB        -71.2085   24.9089  -75.8633 C.3       8 UNK        -0.1976 
     32 N         -72.9637   25.8266  -77.2882 N.am      8 UNK        -0.4313 
     33 C         -73.5144   26.1249  -78.4726 C.2       8 UNK         0.5041 
     34 O         -72.8669   26.4652  -79.4624 O.2       8 UNK        -0.5577 
     35 CA        -75.0536   26.1187  -78.5381 C.3       7 UNK         0.0284 
     36 CB        -75.5921   24.7198  -78.8771 C.3       7 UNK        -0.1958 
     37 N         -75.6609   26.6009  -77.2924 N.am      7 UNK        -0.4454 
     38 C         -75.5599   27.8609  -76.8418 C.2       7 UNK         0.5089 
     39 O         -75.0124   28.7660  -77.4706 O.2       7 UNK        -0.5125 
     40 CA        -76.1122   28.1538  -75.4368 C.3       6 UNK         0.0408 
     41 CB        -77.5154   28.7577  -75.5191 C.3       6 UNK        -0.1791 
     42 N         -76.1273   26.9760  -74.5633 N.am      6 UNK        -0.4762 
     43 C         -75.0145   26.4212  -74.0660 C.2       6 UNK         0.5007 
     44 O         -73.8837   26.8389  -74.3183 O.2       6 UNK        -0.5032 
     45 CA        -75.1812   25.1755  -73.1761 C.3       5 UNK         0.0783 
     46 C46       -75.8991   25.4866  -71.8355 C.3       11 UNK        -0.0857 
     47 S47       -77.7241   25.5442  -71.9462 S.3       11 UNK        -0.2512 
     48 C48       -78.1433   26.7509  -70.6517 C.3       11 UNK         0.0225 
     49 N         -75.7717   24.0344  -73.8850 N.am      5 UNK        -0.4615 
     50 C         -75.3099   23.4702  -75.0069 C.2       4 UNK         0.5053 
     51 O         -74.3328   23.8886  -75.6237 O.2       4 UNK        -0.5105 
     52 CA        -76.0601   22.2452  -75.5604 C.3       4 UNK         0.0263 
     53 CB        -75.5817   20.9473  -74.8813 C.3       4 UNK        -0.1981 
     54 N         -77.5239   22.3686  -75.5424 N.am      4 UNK        -0.4224 
     55 C         -78.3603   22.3994  -74.4964 C.2       3 UNK         0.4895 
     56 O         -77.9956   22.2972  -73.3242 O.2       3 UNK        -0.5091 
     57 CA        -79.8455   22.6354  -74.8293 C.3       3 UNK         0.0250 
     58 CB        -80.7457   22.5737  -73.5816 C.3       3 UNK        -0.1996 
     59 N         -80.0422   23.9297  -75.4860 N.am      3 UNK        -0.4254 
     60 C         -79.7753   24.2202  -76.7657 C.2       2 UNK         0.5004 
     61 O         -79.3385   23.3826  -77.5577 O.2       2 UNK        -0.5226 
     62 CA        -79.9975   25.6760  -77.2401 C.3       2 UNK         0.0269 
     63 CB        -80.2584   25.7591  -78.7556 C.3       2 UNK        -0.1926 
     64 N         -81.0647   26.4029  -76.5357 N.am      2 UNK        -0.4687 
     65 C         -80.9935   26.8608  -75.2787 C.2       1 UNK         0.5165 
     66 O         -80.0091   26.6798  -74.5585 O.2       1 UNK        -0.5079 
     67 H67       -83.6950   25.7664  -70.8783 H         1 UNK         0.0900 
     68 H68       -81.9672   25.4004  -70.8934 H         1 UNK         0.0900 
     69 H69       -82.5149   27.0735  -70.7645 H         1 UNK         0.0900 
     70 H70       -82.1796   28.1579  -72.6967 H         1 UNK         0.2959 
     71 H71       -83.1053   27.1851  -75.2155 H         1 UNK         0.1079 
     72 H72       -82.4818   29.2651  -76.1111 H         1 UNK         0.0837 
     73 H73       -83.0374   29.6412  -74.5182 H         1 UNK         0.0837 
     74 H74       -80.7900   31.5069  -72.8773 H         1 UNK         0.0685 
     75 H75       -81.5655   29.9873  -72.5334 H         1 UNK         0.0685 
     76 H76       -80.1767   27.9527  -71.9615 H         1 UNK         0.1434 
     77 H77       -76.2087   28.6857  -70.5426 H         1 UNK         0.1329 
     78 H78       -78.3628   31.7890  -72.5767 H         1 UNK         0.1335 
     79 H79       -75.5080   31.1364  -70.4037 H         1 UNK         0.0680 
     80 H80       -76.3039   32.3082  -71.4168 H         1 UNK         0.0680 
     81 H81       -73.8073   29.5869  -71.0084 H         1 UNK         0.1032 
     82 H82       -74.4313   28.6667  -72.3522 H         1 UNK         0.1032 
     83 H83       -71.8748   30.3387  -72.3704 H         1 UNK         0.0461 
     84 H84       -70.3001   26.7536  -72.3252 H         1 UNK         0.3453 
     85 H85       -70.7324   27.6491  -73.7624 H         1 UNK         0.3453 
     86 H86       -72.9384   28.5585  -74.5120 H         1 UNK         0.2984 
     87 H87       -72.7615   30.2995  -76.8065 H         1 UNK         0.0554 
     88 H88       -70.6387   31.4926  -77.1995 H         1 UNK         0.0847 
     89 H89       -70.8057   30.1946  -78.3679 H         1 UNK         0.0847 
     90 H90       -69.7173   30.0108  -76.9927 H         1 UNK         0.0847 
     91 H91       -72.8628   28.1547  -77.2692 H         1 UNK         0.3141 
     92 H92       -70.9443   25.7427  -77.8212 H         1 UNK         0.0743 
     93 H93       -70.1425   24.9068  -75.6329 H         1 UNK         0.0784 
     94 H94       -71.7450   25.1010  -74.9329 H         1 UNK         0.0784 
     95 H95       -71.4678   23.9035  -76.1955 H         1 UNK         0.0784 
     96 H96       -73.5682   25.4903  -76.5434 H         1 UNK         0.3213 
     97 H97       -75.3531   26.7989  -79.3388 H         1 UNK         0.0855 
     98 H98       -75.2848   23.9769  -78.1425 H         1 UNK         0.0814 
     99 H99       -75.2173   24.3875  -79.8461 H         1 UNK         0.0814 
    100 H100      -76.6810   24.7115  -78.9316 H         1 UNK         0.0814 
    101 H101      -76.0923   25.9160  -76.6905 H         1 UNK         0.3105 
    102 H102      -75.4607   28.9011  -74.9781 H         1 UNK         0.0547 
    103 H103      -77.9079   28.9607  -74.5239 H         1 UNK         0.0837 
    104 H104      -77.5037   29.7033  -76.0621 H         1 UNK         0.0837 
    105 H105      -78.2166   28.0989  -76.0274 H         1 UNK         0.0837 
    106 H106      -77.0283   26.6098  -74.2808 H         1 UNK         0.3020 
    107 H107      -74.1634   24.8702  -72.9217 H         1 UNK         0.1245 
    108 H108      -75.5226   26.4156  -71.4037 H         1 UNK         0.0781 
    109 H109      -75.6506   24.7096  -71.1110 H         1 UNK         0.0781 
    110 H110      -77.4386   26.6739  -69.8223 H         1 UNK         0.0836 
    111 H111      -79.1196   26.4909  -70.2398 H         1 UNK         0.0836 
    112 H112      -76.5905   23.6142  -73.4530 H         1 UNK         0.3022 
    113 H113      -75.7927   22.1689  -76.6152 H         1 UNK         0.0747 
    114 H114      -76.0671   20.0720  -75.3127 H         1 UNK         0.0793 
    115 H115      -74.5062   20.8179  -75.0097 H         1 UNK         0.0793 
    116 H116      -75.7793   20.9466  -73.8091 H         1 UNK         0.0793 
    117 H117      -77.9545   22.5247  -76.4506 H         1 UNK         0.3047 
    118 H118      -80.1594   21.8412  -75.5100 H         1 UNK         0.0822 
    119 H119      -80.6376   21.6188  -73.0656 H         1 UNK         0.0807 
    120 H120      -81.7977   22.6806  -73.8470 H         1 UNK         0.0807 
    121 H121      -80.5003   23.3623  -72.8684 H         1 UNK         0.0807 
    122 H122      -80.3022   24.7035  -74.8840 H         1 UNK         0.2946 
    123 H123      -79.0561   26.1925  -77.0464 H         1 UNK         0.1144 
    124 H124      -80.3552   26.7935  -79.0863 H         1 UNK         0.0793 
    125 H125      -81.1689   25.2285  -79.0361 H         1 UNK         0.0793 
    126 H126      -79.4365   25.3206  -79.3236 H         1 UNK         0.0793 
    127 H127      -81.9147   26.5565  -77.0597 H         1 UNK         0.2896 
@<TRIPOS>BOND
     1    1    2 1    
     2    1   67 1    
     3    1   68 1    
     4    1   69 1    
     5    2    3 2    
     6    2    4 am   BACKBONE|DICT|INTERRES
     7    4    5 1    
     8    4   70 1    
     9    5    6 1    
    10    5   65 1    
    11    5   71 1    
    12    6    7 1    
    13    6   72 1    
    14    6   73 1    
    15    7    8 1    
    16    8    9 1    
    17    8   74 1    
    18    8   75 1    
    19    9   10 ar   
    20    9   14 ar   
    21   10   11 ar   
    22   10   76 1    
    23   11   12 ar   
    24   11   48 1    
    25   12   13 ar   
    26   12   77 1    
    27   13   14 ar   
    28   13   15 1    
    29   14   78 1    
    30   15   16 1    
    31   15   79 1    
    32   15   80 1    
    33   16   17 1    
    34   17   18 1    
    35   17   81 1    
    36   17   82 1    
    37   18   19 1    
    38   18   22 1    
    39   18   83 1    
    40   19   20 am   BACKBONE|DICT|INTERRES
    41   19   21 2    
    42   20   84 1    
    43   20   85 1    
    44   22   23 am   BACKBONE|DICT|INTERRES
    45   22   86 1    
    46   23   24 2    
    47   23   25 1    
    48   25   26 1    
    49   25   27 1    
    50   25   87 1    
    51   26   88 1    
    52   26   89 1    
    53   26   90 1    
    54   27   28 am   BACKBONE|DICT|INTERRES
    55   27   91 1    
    56   28   29 2    
    57   28   30 1    
    58   30   31 1    
    59   30   32 1    
    60   30   92 1    
    61   31   93 1    
    62   31   94 1    
    63   31   95 1    
    64   32   33 am   BACKBONE|DICT|INTERRES
    65   32   96 1    
    66   33   34 2    
    67   33   35 1    
    68   35   36 1    
    69   35   37 1    
    70   35   97 1    
    71   36   98 1    
    72   36   99 1    
    73   36  100 1    
    74   37   38 am   BACKBONE|DICT|INTERRES
    75   37  101 1    
    76   38   39 2    
    77   38   40 1    
    78   40   41 1    
    79   40   42 1    
    80   40  102 1    
    81   41  103 1    
    82   41  104 1    
    83   41  105 1    
    84   42   43 am   BACKBONE|DICT|INTERRES
    85   42  106 1    
    86   43   44 2    
    87   43   45 1    
    88   45   46 1    
    89   45   49 1    
    90   45  107 1    
    91   46   47 1    
    92   46  108 1    
    93   46  109 1    
    94   47   48 1    
    95   48  110 1    
    96   48  111 1    
    97   49   50 am   BACKBONE|DICT|INTERRES
    98   49  112 1    
    99   50   51 2    
   100   50   52 1    
   101   52   53 1    
   102   52   54 1    
   103   52  113 1    
   104   53  114 1    
   105   53  115 1    
   106   53  116 1    
   107   54   55 am   BACKBONE|DICT|INTERRES
   108   54  117 1    
   109   55   56 2    
   110   55   57 1    
   111   57   58 1    
   112   57   59 1    
   113   57  118 1    
   114   58  119 1    
   115   58  120 1    
   116   58  121 1    
   117   59   60 am   BACKBONE|DICT|INTERRES
   118   59  122 1    
   119   60   61 2    
   120   60   62 1    
   121   62   63 1    
   122   62   64 1    
   123   62  123 1    
   124   63  124 1    
   125   63  125 1    
   126   63  126 1    
   127   64   65 am   BACKBONE|DICT|INTERRES
   128   64  127 1    
   129   65   66 2    
@<TRIPOS>SUBSTRUCTURE
     1 UNK         1 GROUP             0       ****    0 ROOT    
