@<TRIPOS>MOLECULE
3R135
127   129    1
SMALL
USER_CHARGES


@<TRIPOS>ATOM
      1 CA        -84.5542   24.5910  -75.1679 C.3       0 UNK        -0.1998 
      2 C         -84.5936   25.8530  -74.3192 C.2       0 UNK         0.4909 
      3 O         -85.5361   26.6374  -74.4298 O.2       0 UNK        -0.5240 
      4 N         -83.5766   26.0540  -73.4709 N.am      1 UNK        -0.4739 
      5 CA        -83.4343   27.2165  -72.5834 C.3       1 UNK         0.0864 
      6 C6        -82.4014   26.9408  -71.4619 C.3       11 UNK        -0.0881 
      7 S7        -80.7118   26.5860  -72.0686 S.3       11 UNK        -0.2682 
      8 C8        -79.7546   27.0386  -70.5930 C.3       11 UNK         0.0289 
      9 C9        -78.2691   26.7919  -70.7955 C.ar      11 UNK        -0.0687 
     10 C10       -77.7486   25.5029  -70.6520 C.ar      11 UNK        -0.0823 
     11 C11       -76.3773   25.2738  -70.7904 C.ar      11 UNK        -0.0830 
     12 C12       -75.5282   26.3450  -71.0839 C.ar      11 UNK        -0.1021 
     13 C13       -76.0342   27.6383  -71.2442 C.ar      11 UNK        -0.0753 
     14 C14       -77.4094   27.8547  -71.0897 C.ar      11 UNK        -0.0933 
     15 C15       -75.0629   28.7830  -71.5223 C.3       11 UNK         0.0166 
     16 S16       -75.7205   30.0702  -72.6327 S.3       11 UNK        -0.2615 
     17 C17       -74.2354   31.1057  -72.8704 C.3       11 UNK        -0.0865 
     18 CA        -73.8347   31.2770  -74.3601 C.3       10 UNK         0.0862 
     19 C         -72.5704   32.1805  -74.4761 C.2       10 UNK         0.5551 
     20 N         -71.4146   31.6650  -74.8812 N.am      10 UNK        -0.7319 
     21 O         -72.6437   33.3729  -74.1898 O.2       10 UNK        -0.5018 
     22 N         -73.7264   29.9871  -75.0599 N.am      10 UNK        -0.4509 
     23 C         -73.6621   29.8396  -76.3898 C.2       10 UNK         0.4899 
     24 O         -73.8020   30.7714  -77.1837 O.2       10 UNK        -0.4839 
     25 CA        -73.3976   28.4151  -76.9237 C.3       9 UNK         0.0222 
     26 CB        -72.6577   28.4313  -78.2771 C.3       9 UNK        -0.1966 
     27 N         -72.7048   27.5266  -75.9786 N.am      9 UNK        -0.4218 
     28 C         -71.5229   27.7305  -75.3723 C.2       9 UNK         0.5020 
     29 O         -70.8482   28.7539  -75.4957 O.2       9 UNK        -0.5274 
     30 CA        -71.0230   26.6055  -74.4559 C.3       8 UNK         0.0270 
     31 CB        -71.8130   26.5908  -73.1347 C.3       8 UNK        -0.1976 
     32 N         -71.1491   25.3079  -75.1202 N.am      8 UNK        -0.4313 
     33 C         -70.1635   24.6894  -75.7859 C.2       8 UNK         0.5041 
     34 O         -69.0054   25.1054  -75.8406 O.2       8 UNK        -0.5577 
     35 CA        -70.5215   23.3811  -76.5187 C.3       7 UNK         0.0284 
     36 CB        -70.2323   22.1667  -75.6214 C.3       7 UNK        -0.1958 
     37 N         -71.9174   23.3329  -76.9612 N.am      7 UNK        -0.4454 
     38 C         -72.4363   24.0990  -77.9311 C.2       7 UNK         0.5089 
     39 O         -71.7629   24.8388  -78.6476 O.2       7 UNK        -0.5125 
     40 CA        -73.9659   24.0571  -78.1225 C.3       6 UNK         0.0408 
     41 CB        -74.3284   23.2014  -79.3465 C.3       6 UNK        -0.1791 
     42 N         -74.7286   23.5801  -76.9596 N.am      6 UNK        -0.4762 
     43 C         -74.7304   24.1424  -75.7428 C.2       6 UNK         0.5007 
     44 O         -74.0357   25.1162  -75.4432 O.2       6 UNK        -0.5032 
     45 CA        -75.6591   23.5168  -74.6874 C.3       5 UNK         0.0783 
     46 C46       -75.0180   23.5489  -73.2788 C.3       11 UNK        -0.0857 
     47 S47       -76.0927   22.7896  -72.0152 S.3       11 UNK        -0.2512 
     48 C48       -75.8086   23.8767  -70.5829 C.3       11 UNK         0.0225 
     49 N         -76.9518   24.2004  -74.7339 N.am      5 UNK        -0.4615 
     50 C         -77.9087   23.9370  -75.6320 C.2       4 UNK         0.5053 
     51 O         -77.8175   23.0495  -76.4816 O.2       4 UNK        -0.5105 
     52 CA        -79.1857   24.7934  -75.5829 C.3       4 UNK         0.0263 
     53 CB        -80.2797   24.0775  -74.7752 C.3       4 UNK        -0.1981 
     54 N         -78.9975   26.1451  -75.0470 N.am      4 UNK        -0.4224 
     55 C         -78.2581   27.1056  -75.6214 C.2       3 UNK         0.4895 
     56 O         -77.5731   26.9352  -76.6315 O.2       3 UNK        -0.5091 
     57 CA        -78.3467   28.4962  -74.9648 C.3       3 UNK         0.0250 
     58 CB        -77.4907   29.5586  -75.6865 C.3       3 UNK        -0.1996 
     59 N         -79.7392   28.9473  -74.8265 N.am      3 UNK        -0.4254 
     60 C         -80.6254   29.1625  -75.8133 C.2       2 UNK         0.5004 
     61 O         -80.3736   29.0482  -77.0138 O.2       2 UNK        -0.5226 
     62 CA        -82.0502   29.5115  -75.3609 C.3       2 UNK         0.0269 
     63 CB        -83.0232   29.7457  -76.5328 C.3       2 UNK        -0.1926 
     64 N         -82.5441   28.4121  -74.5372 N.am      2 UNK        -0.4687 
     65 C         -83.1111   28.5300  -73.3311 C.2       1 UNK         0.5165 
     66 O         -83.3569   29.6109  -72.7938 O.2       1 UNK        -0.5079 
     67 H67       -85.4745   24.0224  -75.0371 H         1 UNK         0.0900 
     68 H68       -84.4612   24.8508  -76.2220 H         1 UNK         0.0900 
     69 H69       -83.7185   23.9446  -74.9011 H         1 UNK         0.0900 
     70 H70       -82.8363   25.3702  -73.4030 H         1 UNK         0.2959 
     71 H71       -84.4025   27.3758  -72.1030 H         1 UNK         0.1079 
     72 H72       -82.7301   26.0901  -70.8627 H         1 UNK         0.0837 
     73 H73       -82.3683   27.7867  -70.7720 H         1 UNK         0.0837 
     74 H74       -80.1095   26.4583  -69.7398 H         1 UNK         0.0685 
     75 H75       -79.9362   28.0870  -70.3512 H         1 UNK         0.0685 
     76 H76       -78.4102   24.6792  -70.4198 H         1 UNK         0.1434 
     77 H77       -74.4643   26.1725  -71.1745 H         1 UNK         0.1329 
     78 H78       -77.8120   28.8537  -71.1841 H         1 UNK         0.1335 
     79 H79       -74.1460   28.3887  -71.9629 H         1 UNK         0.0680 
     80 H80       -74.7835   29.2419  -70.5730 H         1 UNK         0.0680 
     81 H81       -73.4015   30.6899  -72.3017 H         1 UNK         0.1032 
     82 H82       -74.4406   32.0804  -72.4233 H         1 UNK         0.1032 
     83 H83       -74.6426   31.8267  -74.8471 H         1 UNK         0.0461 
     84 H84       -70.6069   32.2628  -74.9525 H         1 UNK         0.3453 
     85 H85       -71.3355   30.6814  -75.1176 H         1 UNK         0.3453 
     86 H86       -73.6173   29.1713  -74.4784 H         1 UNK         0.2984 
     87 H87       -74.3798   27.9690  -77.0881 H         1 UNK         0.0554 
     88 H88       -73.2224   28.9815  -79.0306 H         1 UNK         0.0847 
     89 H89       -72.5120   27.4226  -78.6618 H         1 UNK         0.0847 
     90 H90       -71.6779   28.9028  -78.1943 H         1 UNK         0.0847 
     91 H91       -73.1993   26.6596  -75.7702 H         1 UNK         0.3141 
     92 H92       -69.9756   26.8041  -74.2185 H         1 UNK         0.0743 
     93 H93       -72.8758   26.4044  -73.2926 H         1 UNK         0.0784 
     94 H94       -71.4376   25.8208  -72.4606 H         1 UNK         0.0784 
     95 H95       -71.7212   27.5461  -72.6162 H         1 UNK         0.0784 
     96 H96       -72.0862   24.9243  -75.1772 H         1 UNK         0.3213 
     97 H97       -69.8831   23.3141  -77.4026 H         1 UNK         0.0855 
     98 H98       -70.8512   22.1693  -74.7231 H         1 UNK         0.0814 
     99 H99       -69.1903   22.1617  -75.2981 H         1 UNK         0.0814 
    100 H100      -70.4091   21.2301  -76.1504 H         1 UNK         0.0814 
    101 H101      -72.5430   22.7286  -76.4493 H         1 UNK         0.3105 
    102 H102      -74.2878   25.0823  -78.3180 H         1 UNK         0.0547 
    103 H103      -75.3958   23.2490  -79.5630 H         1 UNK         0.0837 
    104 H104      -74.0599   22.1544  -79.2010 H         1 UNK         0.0837 
    105 H105      -73.8046   23.5511  -80.2374 H         1 UNK         0.0837 
    106 H106      -75.3701   22.8166  -77.1302 H         1 UNK         0.3020 
    107 H107      -75.8079   22.4657  -74.9468 H         1 UNK         0.1245 
    108 H108      -74.7800   24.5731  -72.9940 H         1 UNK         0.0781 
    109 H109      -74.0694   23.0087  -73.2787 H         1 UNK         0.0781 
    110 H110      -74.7392   23.9202  -70.3702 H         1 UNK         0.0836 
    111 H111      -76.2720   23.4263  -69.7038 H         1 UNK         0.0836 
    112 H112      -77.0933   24.9455  -74.0684 H         1 UNK         0.3022 
    113 H113      -79.5384   24.8987  -76.6112 H         1 UNK         0.0747 
    114 H114      -81.2226   24.6207  -74.8212 H         1 UNK         0.0793 
    115 H115      -80.4648   23.0768  -75.1683 H         1 UNK         0.0793 
    116 H116      -80.0007   23.9691  -73.7261 H         1 UNK         0.0793 
    117 H117      -79.5108   26.3711  -74.2050 H         1 UNK         0.3047 
    118 H118      -77.9507   28.3851  -73.9544 H         1 UNK         0.0822 
    119 H119      -77.5456   30.5237  -75.1832 H         1 UNK         0.0807 
    120 H120      -77.7964   29.7005  -76.7233 H         1 UNK         0.0807 
    121 H121      -76.4439   29.2590  -75.6967 H         1 UNK         0.0807 
    122 H122      -80.0711   29.0423  -73.8765 H         1 UNK         0.2946 
    123 H123      -81.9833   30.4336  -74.7784 H         1 UNK         0.1144 
    124 H124      -82.6787   30.5611  -77.1702 H         1 UNK         0.0793 
    125 H125      -84.0167   30.0132  -76.1726 H         1 UNK         0.0793 
    126 H126      -83.1230   28.8583  -77.1590 H         1 UNK         0.0793 
    127 H127      -82.3685   27.4803  -74.8860 H         1 UNK         0.2896 
@<TRIPOS>BOND
     1    1    2 1    
     2    1   67 1    
     3    1   68 1    
     4    1   69 1    
     5    2    3 2    
     6    2    4 am   BACKBONE|DICT|INTERRES
     7    4    5 1    
     8    4   70 1    
     9    5    6 1    
    10    5   65 1    
    11    5   71 1    
    12    6    7 1    
    13    6   72 1    
    14    6   73 1    
    15    7    8 1    
    16    8    9 1    
    17    8   74 1    
    18    8   75 1    
    19    9   10 ar   
    20    9   14 ar   
    21   10   11 ar   
    22   10   76 1    
    23   11   12 ar   
    24   11   48 1    
    25   12   13 ar   
    26   12   77 1    
    27   13   14 ar   
    28   13   15 1    
    29   14   78 1    
    30   15   16 1    
    31   15   79 1    
    32   15   80 1    
    33   16   17 1    
    34   17   18 1    
    35   17   81 1    
    36   17   82 1    
    37   18   19 1    
    38   18   22 1    
    39   18   83 1    
    40   19   20 am   BACKBONE|DICT|INTERRES
    41   19   21 2    
    42   20   84 1    
    43   20   85 1    
    44   22   23 am   BACKBONE|DICT|INTERRES
    45   22   86 1    
    46   23   24 2    
    47   23   25 1    
    48   25   26 1    
    49   25   27 1    
    50   25   87 1    
    51   26   88 1    
    52   26   89 1    
    53   26   90 1    
    54   27   28 am   BACKBONE|DICT|INTERRES
    55   27   91 1    
    56   28   29 2    
    57   28   30 1    
    58   30   31 1    
    59   30   32 1    
    60   30   92 1    
    61   31   93 1    
    62   31   94 1    
    63   31   95 1    
    64   32   33 am   BACKBONE|DICT|INTERRES
    65   32   96 1    
    66   33   34 2    
    67   33   35 1    
    68   35   36 1    
    69   35   37 1    
    70   35   97 1    
    71   36   98 1    
    72   36   99 1    
    73   36  100 1    
    74   37   38 am   BACKBONE|DICT|INTERRES
    75   37  101 1    
    76   38   39 2    
    77   38   40 1    
    78   40   41 1    
    79   40   42 1    
    80   40  102 1    
    81   41  103 1    
    82   41  104 1    
    83   41  105 1    
    84   42   43 am   BACKBONE|DICT|INTERRES
    85   42  106 1    
    86   43   44 2    
    87   43   45 1    
    88   45   46 1    
    89   45   49 1    
    90   45  107 1    
    91   46   47 1    
    92   46  108 1    
    93   46  109 1    
    94   47   48 1    
    95   48  110 1    
    96   48  111 1    
    97   49   50 am   BACKBONE|DICT|INTERRES
    98   49  112 1    
    99   50   51 2    
   100   50   52 1    
   101   52   53 1    
   102   52   54 1    
   103   52  113 1    
   104   53  114 1    
   105   53  115 1    
   106   53  116 1    
   107   54   55 am   BACKBONE|DICT|INTERRES
   108   54  117 1    
   109   55   56 2    
   110   55   57 1    
   111   57   58 1    
   112   57   59 1    
   113   57  118 1    
   114   58  119 1    
   115   58  120 1    
   116   58  121 1    
   117   59   60 am   BACKBONE|DICT|INTERRES
   118   59  122 1    
   119   60   61 2    
   120   60   62 1    
   121   62   63 1    
   122   62   64 1    
   123   62  123 1    
   124   63  124 1    
   125   63  125 1    
   126   63  126 1    
   127   64   65 am   BACKBONE|DICT|INTERRES
   128   64  127 1    
   129   65   66 2    
@<TRIPOS>SUBSTRUCTURE
     1 UNK         1 GROUP             0       ****    0 ROOT    
