@<TRIPOS>MOLECULE
3R135
127   129    1
SMALL
USER_CHARGES


@<TRIPOS>ATOM
      1 CA        -82.5294   25.5337  -70.5548 C.3       0 UNK        -0.1998 
      2 C         -81.9626   26.0574  -71.8652 C.2       0 UNK         0.4909 
      3 O         -80.7952   25.8121  -72.1621 O.2       0 UNK        -0.5240 
      4 N         -82.7895   26.7546  -72.6576 N.am      1 UNK        -0.4739 
      5 CA        -82.4811   27.4345  -73.9319 C.3       1 UNK         0.0864 
      6 C6        -81.3640   28.5052  -73.8182 C.3       11 UNK        -0.0881 
      7 S7        -81.7257   29.7671  -72.5521 S.3       11 UNK        -0.2682 
      8 C8        -80.2388   30.8200  -72.6736 C.3       11 UNK         0.0289 
      9 C9        -78.9165   30.1323  -72.3272 C.ar      11 UNK        -0.0687 
     10 C10       -78.8440   29.0504  -71.4390 C.ar      11 UNK        -0.0823 
     11 C11       -77.6178   28.4516  -71.1339 C.ar      11 UNK        -0.0830 
     12 C12       -76.4490   28.9587  -71.7110 C.ar      11 UNK        -0.1021 
     13 C13       -76.5025   30.0413  -72.5919 C.ar      11 UNK        -0.0753 
     14 C14       -77.7365   30.6224  -72.8949 C.ar      11 UNK        -0.0933 
     15 C15       -75.2278   30.5644  -73.2326 C.3       11 UNK         0.0166 
     16 S16       -74.2718   31.5757  -72.0567 S.3       11 UNK        -0.2615 
     17 C17       -72.8826   32.2458  -73.0467 C.3       11 UNK        -0.0865 
     18 CA        -72.3484   31.3479  -74.1948 C.3       10 UNK         0.0862 
     19 C         -71.1791   32.0506  -74.9382 C.2       10 UNK         0.5551 
     20 N         -71.4794   32.8401  -75.9603 N.am      10 UNK        -0.7319 
     21 O         -70.0133   31.9245  -74.5673 O.2       10 UNK        -0.5018 
     22 N         -71.9836   30.0128  -73.7021 N.am      10 UNK        -0.4509 
     23 C         -71.7543   28.9490  -74.4798 C.2       10 UNK         0.4899 
     24 O         -71.7990   28.9866  -75.7109 O.2       10 UNK        -0.4839 
     25 CA        -71.4266   27.6224  -73.7701 C.3       9 UNK         0.0222 
     26 CB        -71.9636   27.5444  -72.3246 C.3       9 UNK        -0.1966 
     27 N         -72.0012   26.5252  -74.5452 N.am      9 UNK        -0.4218 
     28 C         -71.3095   25.5980  -75.2189 C.2       9 UNK         0.5020 
     29 O         -70.0823   25.4906  -75.1876 O.2       9 UNK        -0.5274 
     30 CA        -72.1258   24.6184  -76.0805 C.3       8 UNK         0.0270 
     31 CB        -72.6878   23.4827  -75.2143 C.3       8 UNK        -0.1976 
     32 N         -73.2218   25.2683  -76.8032 N.am      8 UNK        -0.4313 
     33 C         -73.0600   26.1452  -77.8052 C.2       8 UNK         0.5041 
     34 O         -71.9638   26.4515  -78.2760 O.2       8 UNK        -0.5577 
     35 CA        -74.3268   26.7841  -78.3937 C.3       7 UNK         0.0284 
     36 CB        -74.8173   25.9898  -79.6164 C.3       7 UNK        -0.1958 
     37 N         -75.3991   26.8683  -77.3979 N.am      7 UNK        -0.4454 
     38 C         -75.7204   27.9867  -76.7347 C.2       7 UNK         0.5089 
     39 O         -75.1849   29.0786  -76.9264 O.2       7 UNK        -0.5125 
     40 CA        -76.8414   27.8909  -75.6875 C.3       6 UNK         0.0408 
     41 CB        -78.2074   28.1644  -76.3349 C.3       6 UNK        -0.1791 
     42 N         -76.8994   26.6317  -74.9408 N.am      6 UNK        -0.4762 
     43 C         -75.9502   26.1843  -74.1046 C.2       6 UNK         0.5007 
     44 O         -74.8305   26.6877  -74.0160 O.2       6 UNK        -0.5032 
     45 CA        -76.2933   24.9480  -73.2526 C.3       5 UNK         0.0783 
     46 C46       -77.2951   25.2681  -72.1149 C.3       11 UNK        -0.0857 
     47 S47       -76.4540   25.9338  -70.6410 S.3       11 UNK        -0.2512 
     48 C48       -77.5737   27.2872  -70.1480 C.3       11 UNK         0.0225 
     49 N         -76.7867   23.8848  -74.1236 N.am      5 UNK        -0.4615 
     50 C         -76.2067   22.6874  -74.2735 C.2       4 UNK         0.5053 
     51 O         -75.3010   22.2733  -73.5502 O.2       4 UNK        -0.5105 
     52 CA        -76.6904   21.7907  -75.4327 C.3       4 UNK         0.0263 
     53 CB        -77.5040   20.6050  -74.8879 C.3       4 UNK        -0.1981 
     54 N         -77.4856   22.4765  -76.4559 N.am      4 UNK        -0.4224 
     55 C         -77.1023   23.5335  -77.1870 C.2       3 UNK         0.4895 
     56 O         -75.9842   24.0465  -77.1268 O.2       3 UNK        -0.5091 
     57 CA        -78.1878   24.1944  -78.0564 C.3       3 UNK         0.0250 
     58 CB        -78.1719   23.6048  -79.4748 C.3       3 UNK        -0.1996 
     59 N         -79.5443   24.0958  -77.4948 N.am      3 UNK        -0.4254 
     60 C         -79.9108   24.5352  -76.2811 C.2       2 UNK         0.5004 
     61 O         -79.1317   25.0619  -75.4821 O.2       2 UNK        -0.5226 
     62 CA        -81.3622   24.2706  -75.8591 C.3       2 UNK         0.0269 
     63 CB        -81.4877   22.8618  -75.2561 C.3       2 UNK        -0.1926 
     64 N         -81.7835   25.2463  -74.8558 N.am      2 UNK        -0.4687 
     65 C         -82.2016   26.4882  -75.1225 C.2       1 UNK         0.5165 
     66 O         -82.3878   26.9013  -76.2685 O.2       1 UNK        -0.5079 
     67 H67       -83.5730   25.8166  -70.4185 H         1 UNK         0.0900 
     68 H68       -82.4649   24.4464  -70.5264 H         1 UNK         0.0900 
     69 H69       -81.9579   25.9312  -69.7165 H         1 UNK         0.0900 
     70 H70       -83.7445   26.8778  -72.3506 H         1 UNK         0.2959 
     71 H71       -83.3998   27.9594  -74.1998 H         1 UNK         0.1079 
     72 H72       -81.2313   29.0214  -74.7711 H         1 UNK         0.0837 
     73 H73       -80.4072   28.0326  -73.5904 H         1 UNK         0.0837 
     74 H74       -80.1933   31.2253  -73.6857 H         1 UNK         0.0685 
     75 H75       -80.3662   31.6725  -72.0055 H         1 UNK         0.0685 
     76 H76       -79.7451   28.6684  -70.9800 H         1 UNK         0.1434 
     77 H77       -75.4923   28.5116  -71.4780 H         1 UNK         0.1329 
     78 H78       -77.7775   31.4618  -73.5756 H         1 UNK         0.1335 
     79 H79       -75.4612   31.1578  -74.1180 H         1 UNK         0.0680 
     80 H80       -74.6375   29.7135  -73.5732 H         1 UNK         0.0680 
     81 H81       -73.2115   33.2045  -73.4527 H         1 UNK         0.1032 
     82 H82       -72.0744   32.4847  -72.3524 H         1 UNK         0.1032 
     83 H83       -73.1517   31.2122  -74.9215 H         1 UNK         0.0461 
     84 H84       -72.4323   32.9562  -76.2684 H         1 UNK         0.3453 
     85 H85       -70.7358   33.3185  -76.4447 H         1 UNK         0.3453 
     86 H86       -71.9104   29.9146  -72.7009 H         1 UNK         0.2984 
     87 H87       -70.3389   27.5392  -73.7354 H         1 UNK         0.0554 
     88 H88       -71.8024   26.5533  -71.9000 H         1 UNK         0.0847 
     89 H89       -73.0337   27.7514  -72.2757 H         1 UNK         0.0847 
     90 H90       -71.4555   28.2525  -71.6694 H         1 UNK         0.0847 
     91 H91       -73.0146   26.5457  -74.6304 H         1 UNK         0.3141 
     92 H92       -71.4521   24.1809  -76.8204 H         1 UNK         0.0743 
     93 H93       -73.3397   23.8669  -74.4295 H         1 UNK         0.0784 
     94 H94       -73.2588   22.7693  -75.8091 H         1 UNK         0.0784 
     95 H95       -71.8840   22.9300  -74.7263 H         1 UNK         0.0784 
     96 H96       -74.1649   25.0030  -76.5477 H         1 UNK         0.3213 
     97 H97       -74.0560   27.7847  -78.7379 H         1 UNK         0.0855 
     98 H98       -75.0150   24.9457  -79.3750 H         1 UNK         0.0814 
     99 H99       -74.0667   25.9991  -80.4077 H         1 UNK         0.0814 
    100 H100      -75.7298   26.4189  -80.0303 H         1 UNK         0.0814 
    101 H101      -75.8664   25.9994  -77.1617 H         1 UNK         0.3105 
    102 H102      -76.6606   28.6810  -74.9599 H         1 UNK         0.0547 
    103 H103      -78.2100   29.1246  -76.8523 H         1 UNK         0.0837 
    104 H104      -78.9974   28.1991  -75.5865 H         1 UNK         0.0837 
    105 H105      -78.4721   27.3989  -77.0642 H         1 UNK         0.0837 
    106 H106      -77.7811   26.1235  -75.0001 H         1 UNK         0.3020 
    107 H107      -75.3537   24.6251  -72.7975 H         1 UNK         0.1245 
    108 H108      -77.8061   24.3578  -71.7972 H         1 UNK         0.0781 
    109 H109      -78.0849   25.9433  -72.4508 H         1 UNK         0.0781 
    110 H110      -77.2522   27.6691  -69.1783 H         1 UNK         0.0836 
    111 H111      -78.5714   26.8697  -69.9999 H         1 UNK         0.0836 
    112 H112      -77.5507   24.1399  -74.7408 H         1 UNK         0.3022 
    113 H113      -75.7973   21.4002  -75.9246 H         1 UNK         0.0747 
    114 H114      -77.7704   19.9064  -75.6813 H         1 UNK         0.0793 
    115 H115      -76.9317   20.0450  -74.1467 H         1 UNK         0.0793 
    116 H116      -78.4248   20.9361  -74.4058 H         1 UNK         0.0793 
    117 H117      -78.4318   22.1473  -76.5770 H         1 UNK         0.3047 
    118 H118      -77.9419   25.2553  -78.1286 H         1 UNK         0.0822 
    119 H119      -78.8595   24.1359  -80.1333 H         1 UNK         0.0807 
    120 H120      -78.4495   22.5500  -79.4784 H         1 UNK         0.0807 
    121 H121      -77.1788   23.6813  -79.9198 H         1 UNK         0.0807 
    122 H122      -80.2410   23.6610  -78.0834 H         1 UNK         0.2946 
    123 H123      -82.0106   24.3479  -76.7351 H         1 UNK         0.1144 
    124 H124      -82.5107   22.6571  -74.9397 H         1 UNK         0.0793 
    125 H125      -80.8382   22.7348  -74.3885 H         1 UNK         0.0793 
    126 H126      -81.2165   22.0951  -75.9830 H         1 UNK         0.0793 
    127 H127      -81.5299   25.0519  -73.8935 H         1 UNK         0.2896 
@<TRIPOS>BOND
     1    1    2 1    
     2    1   67 1    
     3    1   68 1    
     4    1   69 1    
     5    2    3 2    
     6    2    4 am   BACKBONE|DICT|INTERRES
     7    4    5 1    
     8    4   70 1    
     9    5    6 1    
    10    5   65 1    
    11    5   71 1    
    12    6    7 1    
    13    6   72 1    
    14    6   73 1    
    15    7    8 1    
    16    8    9 1    
    17    8   74 1    
    18    8   75 1    
    19    9   10 ar   
    20    9   14 ar   
    21   10   11 ar   
    22   10   76 1    
    23   11   12 ar   
    24   11   48 1    
    25   12   13 ar   
    26   12   77 1    
    27   13   14 ar   
    28   13   15 1    
    29   14   78 1    
    30   15   16 1    
    31   15   79 1    
    32   15   80 1    
    33   16   17 1    
    34   17   18 1    
    35   17   81 1    
    36   17   82 1    
    37   18   19 1    
    38   18   22 1    
    39   18   83 1    
    40   19   20 am   BACKBONE|DICT|INTERRES
    41   19   21 2    
    42   20   84 1    
    43   20   85 1    
    44   22   23 am   BACKBONE|DICT|INTERRES
    45   22   86 1    
    46   23   24 2    
    47   23   25 1    
    48   25   26 1    
    49   25   27 1    
    50   25   87 1    
    51   26   88 1    
    52   26   89 1    
    53   26   90 1    
    54   27   28 am   BACKBONE|DICT|INTERRES
    55   27   91 1    
    56   28   29 2    
    57   28   30 1    
    58   30   31 1    
    59   30   32 1    
    60   30   92 1    
    61   31   93 1    
    62   31   94 1    
    63   31   95 1    
    64   32   33 am   BACKBONE|DICT|INTERRES
    65   32   96 1    
    66   33   34 2    
    67   33   35 1    
    68   35   36 1    
    69   35   37 1    
    70   35   97 1    
    71   36   98 1    
    72   36   99 1    
    73   36  100 1    
    74   37   38 am   BACKBONE|DICT|INTERRES
    75   37  101 1    
    76   38   39 2    
    77   38   40 1    
    78   40   41 1    
    79   40   42 1    
    80   40  102 1    
    81   41  103 1    
    82   41  104 1    
    83   41  105 1    
    84   42   43 am   BACKBONE|DICT|INTERRES
    85   42  106 1    
    86   43   44 2    
    87   43   45 1    
    88   45   46 1    
    89   45   49 1    
    90   45  107 1    
    91   46   47 1    
    92   46  108 1    
    93   46  109 1    
    94   47   48 1    
    95   48  110 1    
    96   48  111 1    
    97   49   50 am   BACKBONE|DICT|INTERRES
    98   49  112 1    
    99   50   51 2    
   100   50   52 1    
   101   52   53 1    
   102   52   54 1    
   103   52  113 1    
   104   53  114 1    
   105   53  115 1    
   106   53  116 1    
   107   54   55 am   BACKBONE|DICT|INTERRES
   108   54  117 1    
   109   55   56 2    
   110   55   57 1    
   111   57   58 1    
   112   57   59 1    
   113   57  118 1    
   114   58  119 1    
   115   58  120 1    
   116   58  121 1    
   117   59   60 am   BACKBONE|DICT|INTERRES
   118   59  122 1    
   119   60   61 2    
   120   60   62 1    
   121   62   63 1    
   122   62   64 1    
   123   62  123 1    
   124   63  124 1    
   125   63  125 1    
   126   63  126 1    
   127   64   65 am   BACKBONE|DICT|INTERRES
   128   64  127 1    
   129   65   66 2    
@<TRIPOS>SUBSTRUCTURE
     1 UNK         1 GROUP             0       ****    0 ROOT    
