@<TRIPOS>MOLECULE
3R135
127   129    1
SMALL
USER_CHARGES


@<TRIPOS>ATOM
      1 CA        -82.0453   25.5039  -71.8321 C.3       0 UNK        -0.1998 
      2 C         -81.5671   26.3000  -73.0359 C.2       0 UNK         0.4909 
      3 O         -80.5642   25.9411  -73.6488 O.2       0 UNK        -0.5240 
      4 N         -82.2912   27.3683  -73.3960 N.am      1 UNK        -0.4739 
      5 CA        -81.9207   28.3610  -74.4224 C.3       1 UNK         0.0864 
      6 C6        -80.6954   29.2231  -74.0066 C.3       11 UNK        -0.0881 
      7 S7        -80.9259   29.9962  -72.3678 S.3       11 UNK        -0.2682 
      8 C8        -79.2324   30.5405  -71.9682 C.3       11 UNK         0.0289 
      9 C9        -78.1988   29.4180  -71.8822 C.ar      11 UNK        -0.0687 
     10 C10       -78.4934   28.1805  -71.2921 C.ar      11 UNK        -0.0823 
     11 C11       -77.5151   27.1829  -71.1952 C.ar      11 UNK        -0.0830 
     12 C12       -76.2296   27.4410  -71.6766 C.ar      11 UNK        -0.1021 
     13 C13       -75.9282   28.6608  -72.2855 C.ar      11 UNK        -0.0753 
     14 C14       -76.9130   29.6454  -72.3814 C.ar      11 UNK        -0.0933 
     15 C15       -74.5526   28.8870  -72.8860 C.3       11 UNK         0.0166 
     16 S16       -73.3567   29.5117  -71.6644 S.3       11 UNK        -0.2615 
     17 C17       -73.4082   31.3114  -71.9887 C.3       11 UNK        -0.0865 
     18 CA        -72.3336   31.7870  -73.0060 C.3       10 UNK         0.0862 
     19 C         -70.8991   31.8065  -72.3969 C.2       10 UNK         0.5551 
     20 N         -69.9280   31.0773  -72.9361 N.am      10 UNK        -0.7319 
     21 O         -70.6607   32.5142  -71.4212 O.2       10 UNK        -0.5018 
     22 N         -72.4511   31.0493  -74.2695 N.am      10 UNK        -0.4509 
     23 C         -72.0468   31.4657  -75.4723 C.2       10 UNK         0.4899 
     24 O         -71.5994   32.5918  -75.6936 O.2       10 UNK        -0.4839 
     25 CA        -72.1748   30.4384  -76.6167 C.3       9 UNK         0.0222 
     26 CB        -71.1942   30.7197  -77.7746 C.3       9 UNK        -0.1966 
     27 N         -72.0685   29.0352  -76.1823 N.am      9 UNK        -0.4218 
     28 C         -71.0243   28.4548  -75.5626 C.2       9 UNK         0.5020 
     29 O         -70.0310   29.0774  -75.1834 O.2       9 UNK        -0.5274 
     30 CA        -71.0842   26.9349  -75.2970 C.3       8 UNK         0.0270 
     31 CB        -71.1645   26.6442  -73.7891 C.3       8 UNK        -0.1976 
     32 N         -72.1864   26.2527  -75.9821 N.am      8 UNK        -0.4313 
     33 C         -72.2417   26.0406  -77.3069 C.2       8 UNK         0.5041 
     34 O         -71.3138   26.3012  -78.0734 O.2       8 UNK        -0.5577 
     35 CA        -73.5523   25.4790  -77.8941 C.3       7 UNK         0.0284 
     36 CB        -73.3842   23.9953  -78.2580 C.3       7 UNK        -0.1958 
     37 N         -74.7220   25.6298  -77.0231 N.am      7 UNK        -0.4454 
     38 C         -75.2273   26.7903  -76.5778 C.2       7 UNK         0.5089 
     39 O         -74.7736   27.8940  -76.8840 O.2       7 UNK        -0.5125 
     40 CA        -76.3859   26.7059  -75.5676 C.3       6 UNK         0.0408 
     41 CB        -77.7312   26.9794  -76.2557 C.3       6 UNK        -0.1791 
     42 N         -76.4571   25.4325  -74.8410 N.am      6 UNK        -0.4762 
     43 C         -75.5032   24.9487  -74.0270 C.2       6 UNK         0.5007 
     44 O         -74.4096   25.4916  -73.8633 O.2       6 UNK        -0.5032 
     45 CA        -75.7846   23.6090  -73.3156 C.3       5 UNK         0.0783 
     46 C46       -76.3250   23.8063  -71.8751 C.3       11 UNK        -0.0857 
     47 S47       -78.0192   24.4925  -71.7709 S.3       11 UNK        -0.2512 
     48 C48       -77.8389   25.8397  -70.5500 C.3       11 UNK         0.0225 
     49 N         -76.6206   22.7052  -74.1123 N.am      5 UNK        -0.4615 
     50 C         -76.2526   22.1703  -75.2855 C.2       4 UNK         0.5053 
     51 O         -75.1424   22.3402  -75.7889 O.2       4 UNK        -0.5105 
     52 CA        -77.2896   21.3209  -76.0444 C.3       4 UNK         0.0263 
     53 CB        -77.0246   19.8246  -75.8123 C.3       4 UNK        -0.1981 
     54 N         -78.6914   21.6168  -75.7243 N.am      4 UNK        -0.4224 
     55 C         -79.2887   22.8066  -75.8787 C.2       3 UNK         0.4895 
     56 O         -78.7007   23.8207  -76.2607 O.2       3 UNK        -0.5091 
     57 CA        -80.7809   22.8601  -75.5149 C.3       3 UNK         0.0250 
     58 CB        -80.9903   22.6218  -74.0087 C.3       3 UNK        -0.1996 
     59 N         -81.3622   24.1530  -75.8828 N.am      3 UNK        -0.4254 
     60 C         -81.8734   24.4373  -77.0902 C.2       2 UNK         0.5004 
     61 O         -81.9593   23.6076  -77.9976 O.2       2 UNK        -0.5226 
     62 CA        -82.3976   25.8660  -77.3386 C.3       2 UNK         0.0269 
     63 CB        -83.7928   25.8458  -77.9908 C.3       2 UNK        -0.1926 
     64 N         -82.4715   26.6508  -76.1036 N.am      2 UNK        -0.4687 
     65 C         -81.7594   27.7546  -75.8393 C.2       1 UNK         0.5165 
     66 O         -81.0061   28.2872  -76.6564 O.2       1 UNK        -0.5079 
     67 H67       -82.5282   24.5829  -72.1551 H         1 UNK         0.0900 
     68 H68       -81.1983   25.2413  -71.1987 H         1 UNK         0.0900 
     69 H69       -82.7542   26.0704  -71.2288 H         1 UNK         0.0900 
     70 H70       -83.1218   27.5958  -72.8667 H         1 UNK         0.2959 
     71 H71       -82.7745   29.0356  -74.5041 H         1 UNK         0.1079 
     72 H72       -80.5157   30.0197  -74.7308 H         1 UNK         0.0837 
     73 H73       -79.7928   28.6095  -73.9936 H         1 UNK         0.0837 
     74 H74       -79.2539   31.0612  -71.0101 H         1 UNK         0.0685 
     75 H75       -78.9322   31.2796  -72.7128 H         1 UNK         0.0685 
     76 H76       -79.4864   27.9942  -70.9075 H         1 UNK         0.1434 
     77 H77       -75.4613   26.6859  -71.5989 H         1 UNK         0.1329 
     78 H78       -76.6769   30.5915  -72.8486 H         1 UNK         0.1335 
     79 H79       -74.1765   27.9492  -73.2885 H         1 UNK         0.0680 
     80 H80       -74.6295   29.5596  -73.7404 H         1 UNK         0.0680 
     81 H81       -73.2985   31.8382  -71.0389 H         1 UNK         0.1032 
     82 H82       -74.4013   31.5823  -72.3492 H         1 UNK         0.1032 
     83 H83       -72.5583   32.8319  -73.2280 H         1 UNK         0.0461 
     84 H84       -69.0070   31.1106  -72.5296 H         1 UNK         0.3453 
     85 H85       -70.0991   30.4856  -73.7420 H         1 UNK         0.3453 
     86 H86       -72.7589   30.0936  -74.1797 H         1 UNK         0.2984 
     87 H87       -73.1865   30.5523  -77.0086 H         1 UNK         0.0554 
     88 H88       -71.3631   31.7088  -78.2021 H         1 UNK         0.0847 
     89 H89       -71.3144   29.9958  -78.5807 H         1 UNK         0.0847 
     90 H90       -70.1561   30.6821  -77.4425 H         1 UNK         0.0847 
     91 H91       -72.8647   28.4533  -76.4272 H         1 UNK         0.3141 
     92 H92       -70.1472   26.5140  -75.6677 H         1 UNK         0.0743 
     93 H93       -70.3260   27.0961  -73.2573 H         1 UNK         0.0784 
     94 H94       -72.0777   27.0382  -73.3460 H         1 UNK         0.0784 
     95 H95       -71.1334   25.5730  -73.5895 H         1 UNK         0.0784 
     96 H96       -72.9832   25.9892  -75.4112 H         1 UNK         0.3213 
     97 H97       -73.7569   26.0364  -78.8106 H         1 UNK         0.0855 
     98 H98       -73.1679   23.3877  -77.3784 H         1 UNK         0.0814 
     99 H99       -72.5606   23.8561  -78.9597 H         1 UNK         0.0814 
    100 H100      -74.2817   23.5950  -78.7301 H         1 UNK         0.0814 
    101 H101      -75.1450   24.7760  -76.6836 H         1 UNK         0.3105 
    102 H102      -76.2277   27.4905  -74.8280 H         1 UNK         0.0547 
    103 H103      -77.9356   26.2574  -77.0466 H         1 UNK         0.0837 
    104 H104      -77.7444   27.9714  -76.7089 H         1 UNK         0.0837 
    105 H105      -78.5570   26.9380  -75.5445 H         1 UNK         0.0837 
    106 H106      -77.3079   24.8939  -74.9644 H         1 UNK         0.3020 
    107 H107      -74.8110   23.1217  -73.2207 H         1 UNK         0.1245 
    108 H108      -75.6342   24.4220  -71.2978 H         1 UNK         0.0781 
    109 H109      -76.3365   22.8424  -71.3643 H         1 UNK         0.0781 
    110 H110      -77.0746   25.5840  -69.8149 H         1 UNK         0.0836 
    111 H111      -78.7726   25.9139  -69.9908 H         1 UNK         0.0836 
    112 H112      -77.5546   22.5386  -73.7681 H         1 UNK         0.3022 
    113 H113      -77.1517   21.5302  -77.1072 H         1 UNK         0.0747 
    114 H114      -77.6751   19.2043  -76.4293 H         1 UNK         0.0793 
    115 H115      -75.9964   19.5652  -76.0694 H         1 UNK         0.0793 
    116 H116      -77.1800   19.5441  -74.7697 H         1 UNK         0.0793 
    117 H117      -79.2462   20.8397  -75.3950 H         1 UNK         0.3047 
    118 H118      -81.2924   22.0651  -76.0619 H         1 UNK         0.0822 
    119 H119      -82.0405   22.7226  -73.7354 H         1 UNK         0.0807 
    120 H120      -80.4154   23.3228  -73.4033 H         1 UNK         0.0807 
    121 H121      -80.6819   21.6172  -73.7178 H         1 UNK         0.0807 
    122 H122      -81.2041   24.9095  -75.2234 H         1 UNK         0.2946 
    123 H123      -81.6995   26.3262  -78.0416 H         1 UNK         0.1144 
    124 H124      -84.1510   26.8561  -78.1890 H         1 UNK         0.0793 
    125 H125      -84.5269   25.3477  -77.3564 H         1 UNK         0.0793 
    126 H126      -83.7749   25.3195  -78.9461 H         1 UNK         0.0793 
    127 H127      -83.0577   26.2799  -75.3685 H         1 UNK         0.2896 
@<TRIPOS>BOND
     1    1    2 1    
     2    1   67 1    
     3    1   68 1    
     4    1   69 1    
     5    2    3 2    
     6    2    4 am   BACKBONE|DICT|INTERRES
     7    4    5 1    
     8    4   70 1    
     9    5    6 1    
    10    5   65 1    
    11    5   71 1    
    12    6    7 1    
    13    6   72 1    
    14    6   73 1    
    15    7    8 1    
    16    8    9 1    
    17    8   74 1    
    18    8   75 1    
    19    9   10 ar   
    20    9   14 ar   
    21   10   11 ar   
    22   10   76 1    
    23   11   12 ar   
    24   11   48 1    
    25   12   13 ar   
    26   12   77 1    
    27   13   14 ar   
    28   13   15 1    
    29   14   78 1    
    30   15   16 1    
    31   15   79 1    
    32   15   80 1    
    33   16   17 1    
    34   17   18 1    
    35   17   81 1    
    36   17   82 1    
    37   18   19 1    
    38   18   22 1    
    39   18   83 1    
    40   19   20 am   BACKBONE|DICT|INTERRES
    41   19   21 2    
    42   20   84 1    
    43   20   85 1    
    44   22   23 am   BACKBONE|DICT|INTERRES
    45   22   86 1    
    46   23   24 2    
    47   23   25 1    
    48   25   26 1    
    49   25   27 1    
    50   25   87 1    
    51   26   88 1    
    52   26   89 1    
    53   26   90 1    
    54   27   28 am   BACKBONE|DICT|INTERRES
    55   27   91 1    
    56   28   29 2    
    57   28   30 1    
    58   30   31 1    
    59   30   32 1    
    60   30   92 1    
    61   31   93 1    
    62   31   94 1    
    63   31   95 1    
    64   32   33 am   BACKBONE|DICT|INTERRES
    65   32   96 1    
    66   33   34 2    
    67   33   35 1    
    68   35   36 1    
    69   35   37 1    
    70   35   97 1    
    71   36   98 1    
    72   36   99 1    
    73   36  100 1    
    74   37   38 am   BACKBONE|DICT|INTERRES
    75   37  101 1    
    76   38   39 2    
    77   38   40 1    
    78   40   41 1    
    79   40   42 1    
    80   40  102 1    
    81   41  103 1    
    82   41  104 1    
    83   41  105 1    
    84   42   43 am   BACKBONE|DICT|INTERRES
    85   42  106 1    
    86   43   44 2    
    87   43   45 1    
    88   45   46 1    
    89   45   49 1    
    90   45  107 1    
    91   46   47 1    
    92   46  108 1    
    93   46  109 1    
    94   47   48 1    
    95   48  110 1    
    96   48  111 1    
    97   49   50 am   BACKBONE|DICT|INTERRES
    98   49  112 1    
    99   50   51 2    
   100   50   52 1    
   101   52   53 1    
   102   52   54 1    
   103   52  113 1    
   104   53  114 1    
   105   53  115 1    
   106   53  116 1    
   107   54   55 am   BACKBONE|DICT|INTERRES
   108   54  117 1    
   109   55   56 2    
   110   55   57 1    
   111   57   58 1    
   112   57   59 1    
   113   57  118 1    
   114   58  119 1    
   115   58  120 1    
   116   58  121 1    
   117   59   60 am   BACKBONE|DICT|INTERRES
   118   59  122 1    
   119   60   61 2    
   120   60   62 1    
   121   62   63 1    
   122   62   64 1    
   123   62  123 1    
   124   63  124 1    
   125   63  125 1    
   126   63  126 1    
   127   64   65 am   BACKBONE|DICT|INTERRES
   128   64  127 1    
   129   65   66 2    
@<TRIPOS>SUBSTRUCTURE
     1 UNK         1 GROUP             0       ****    0 ROOT    
