@<TRIPOS>MOLECULE
3R135
127   129    1
SMALL
USER_CHARGES


@<TRIPOS>ATOM
      1 CA        -85.2874   25.3082  -68.6898 C.3       0 UNK        -0.1998 
      2 C         -84.5578   25.6794  -69.9723 C.2       0 UNK         0.4909 
      3 O         -85.1972   26.0735  -70.9485 O.2       0 UNK        -0.5240 
      4 N         -83.2235   25.5654  -69.9761 N.am      1 UNK        -0.4739 
      5 CA        -82.3705   25.8092  -71.1424 C.3       1 UNK         0.0864 
      6 C6        -80.8910   25.9848  -70.7178 C.3       11 UNK        -0.0881 
      7 S7        -79.8497   26.7318  -72.0192 S.3       11 UNK        -0.2682 
      8 C8        -79.8103   28.4681  -71.4800 C.3       11 UNK         0.0289 
      9 C9        -78.7820   29.2682  -72.2643 C.ar      11 UNK        -0.0687 
     10 C10       -79.1054   29.8078  -73.5126 C.ar      11 UNK        -0.0823 
     11 C11       -78.1669   30.5617  -74.2258 C.ar      11 UNK        -0.0830 
     12 C12       -76.8947   30.7705  -73.6837 C.ar      11 UNK        -0.1021 
     13 C13       -76.5658   30.2465  -72.4293 C.ar      11 UNK        -0.0753 
     14 C14       -77.5110   29.4923  -71.7279 C.ar      11 UNK        -0.0933 
     15 C15       -75.2039   30.5200  -71.8108 C.3       11 UNK         0.0166 
     16 S16       -74.1381   29.0529  -71.8895 S.3       11 UNK        -0.2615 
     17 C17       -72.6059   29.7006  -71.1359 C.3       11 UNK        -0.0865 
     18 CA        -71.6013   30.2422  -72.1866 C.3       10 UNK         0.0862 
     19 C         -70.3393   30.8420  -71.5011 C.2       10 UNK         0.5551 
     20 N         -69.1389   30.3335  -71.7515 N.am      10 UNK        -0.7319 
     21 O         -70.4537   31.7925  -70.7311 O.2       10 UNK        -0.5018 
     22 N         -71.3222   29.2394  -73.2247 N.am      10 UNK        -0.4509 
     23 C         -70.9012   29.4938  -74.4660 C.2       10 UNK         0.4899 
     24 O         -70.6296   30.6218  -74.8781 O.2       10 UNK        -0.4839 
     25 CA        -70.7824   28.2980  -75.4276 C.3       9 UNK         0.0222 
     26 CB        -69.3745   27.6745  -75.3744 C.3       9 UNK        -0.1966 
     27 N         -71.8334   27.2795  -75.2788 N.am      9 UNK        -0.4218 
     28 C         -72.0501   26.4105  -74.2785 C.2       9 UNK         0.5020 
     29 O         -71.3878   26.3776  -73.2403 O.2       9 UNK        -0.5274 
     30 CA        -73.2039   25.4073  -74.4622 C.3       8 UNK         0.0270 
     31 CB        -74.5168   25.9708  -73.8954 C.3       8 UNK        -0.1976 
     32 N         -73.4116   25.0207  -75.8586 N.am      8 UNK        -0.4313 
     33 C         -72.5472   24.3145  -76.6012 C.2       8 UNK         0.5041 
     34 O         -71.4884   23.8515  -76.1751 O.2       8 UNK        -0.5577 
     35 CA        -72.9210   24.1093  -78.0759 C.3       7 UNK         0.0284 
     36 CB        -73.9113   22.9435  -78.2298 C.3       7 UNK        -0.1958 
     37 N         -73.4944   25.3302  -78.6470 N.am      7 UNK        -0.4454 
     38 C         -72.7675   26.3500  -79.1248 C.2       7 UNK         0.5089 
     39 O         -71.5385   26.3396  -79.1964 O.2       7 UNK        -0.5125 
     40 CA        -73.5311   27.5971  -79.6074 C.3       6 UNK         0.0408 
     41 CB        -73.8027   27.5057  -81.1173 C.3       6 UNK        -0.1791 
     42 N         -74.7951   27.8251  -78.9022 N.am      6 UNK        -0.4762 
     43 C         -74.8969   28.2122  -77.6219 C.2       6 UNK         0.5007 
     44 O         -73.9283   28.4179  -76.8923 O.2       6 UNK        -0.5032 
     45 CA        -76.3255   28.3477  -77.0541 C.3       5 UNK         0.0783 
     46 C46       -76.8917   29.7556  -77.3719 C.3       11 UNK        -0.0857 
     47 S47       -78.6439   29.9632  -76.8956 S.3       11 UNK        -0.2512 
     48 C48       -78.5526   31.1906  -75.5564 C.3       11 UNK         0.0225 
     49 N         -77.2309   27.2753  -77.4932 N.am      5 UNK        -0.4615 
     50 C         -77.0190   25.9599  -77.3691 C.2       4 UNK         0.5053 
     51 O         -75.9551   25.4721  -76.9879 O.2       4 UNK        -0.5105 
     52 CA        -78.2012   25.0482  -77.7259 C.3       4 UNK         0.0263 
     53 CB        -77.8416   24.0270  -78.8241 C.3       4 UNK        -0.1981 
     54 N         -78.7436   24.4192  -76.5165 N.am      4 UNK        -0.4224 
     55 C         -78.2097   23.4558  -75.7466 C.2       3 UNK         0.4895 
     56 O         -77.2016   22.8082  -76.0290 O.2       3 UNK        -0.5091 
     57 CA        -78.9154   23.1662  -74.4073 C.3       3 UNK         0.0250 
     58 CB        -78.0407   23.6402  -73.2336 C.3       3 UNK        -0.1996 
     59 N         -80.2365   23.7928  -74.2911 N.am      3 UNK        -0.4254 
     60 C         -81.3645   23.3210  -74.8428 C.2       2 UNK         0.5004 
     61 O         -81.4105   22.2880  -75.5124 O.2       2 UNK        -0.5226 
     62 CA        -82.6450   24.1594  -74.6384 C.3       2 UNK         0.0269 
     63 CB        -83.9278   23.2993  -74.6376 C.3       2 UNK        -0.1926 
     64 N         -82.5925   25.0423  -73.4620 N.am      2 UNK        -0.4687 
     65 C         -82.5304   24.6722  -72.1733 C.2       1 UNK         0.5165 
     66 O         -82.5483   23.5011  -71.7857 O.2       1 UNK        -0.5079 
     67 H67       -84.5995   24.9905  -67.9064 H         1 UNK         0.0900 
     68 H68       -85.8524   26.1628  -68.3185 H         1 UNK         0.0900 
     69 H69       -85.9859   24.4934  -68.8785 H         1 UNK         0.0900 
     70 H70       -82.7557   25.2037  -69.1571 H         1 UNK         0.2959 
     71 H71       -82.7087   26.7433  -71.5973 H         1 UNK         0.1079 
     72 H72       -80.4520   25.0276  -70.4283 H         1 UNK         0.0837 
     73 H73       -80.8320   26.6107  -69.8260 H         1 UNK         0.0837 
     74 H74       -79.5801   28.5163  -70.4144 H         1 UNK         0.0685 
     75 H75       -80.8012   28.9083  -71.6022 H         1 UNK         0.0685 
     76 H76       -80.0910   29.6458  -73.9278 H         1 UNK         0.1434 
     77 H77       -76.1681   31.3597  -74.2265 H         1 UNK         0.1329 
     78 H78       -77.2555   29.0846  -70.7592 H         1 UNK         0.1335 
     79 H79       -74.7110   31.3503  -72.3192 H         1 UNK         0.0680 
     80 H80       -75.3305   30.8226  -70.7702 H         1 UNK         0.0680 
     81 H81       -72.1482   28.8932  -70.5611 H         1 UNK         0.1032 
     82 H82       -72.8634   30.4748  -70.4104 H         1 UNK         0.1032 
     83 H83       -72.0865   31.0844  -72.6837 H         1 UNK         0.0461 
     84 H84       -69.0404   29.5563  -72.3846 H         1 UNK         0.3453 
     85 H85       -68.3275   30.7317  -71.3055 H         1 UNK         0.3453 
     86 H86       -71.4827   28.2683  -72.9740 H         1 UNK         0.2984 
     87 H87       -70.9211   28.6985  -76.4332 H         1 UNK         0.0554 
     88 H88       -68.6107   28.4206  -75.5976 H         1 UNK         0.0847 
     89 H89       -69.2697   26.8739  -76.1069 H         1 UNK         0.0847 
     90 H90       -69.1454   27.2616  -74.3917 H         1 UNK         0.0847 
     91 H91       -72.5336   27.3080  -76.0140 H         1 UNK         0.3141 
     92 H92       -72.9498   24.5043  -73.9033 H         1 UNK         0.0743 
     93 H93       -74.4230   26.1730  -72.8280 H         1 UNK         0.0784 
     94 H94       -74.7990   26.9053  -74.3819 H         1 UNK         0.0784 
     95 H95       -75.3397   25.2666  -74.0205 H         1 UNK         0.0784 
     96 H96       -74.3004   25.2881  -76.2810 H         1 UNK         0.3213 
     97 H97       -72.0116   23.8522  -78.6239 H         1 UNK         0.0855 
     98 H98       -74.8177   23.0998  -77.6441 H         1 UNK         0.0814 
     99 H99       -73.4644   22.0097  -77.8865 H         1 UNK         0.0814 
    100 H100      -74.2023   22.8011  -79.2706 H         1 UNK         0.0814 
    101 H101      -74.4950   25.4493  -78.5495 H         1 UNK         0.3105 
    102 H102      -72.8882   28.4624  -79.4315 H         1 UNK         0.0547 
    103 H103      -72.8741   27.3642  -81.6723 H         1 UNK         0.0837 
    104 H104      -74.4578   26.6685  -81.3614 H         1 UNK         0.0837 
    105 H105      -74.2661   28.4176  -81.4941 H         1 UNK         0.0837 
    106 H106      -75.6463   27.6652  -79.4222 H         1 UNK         0.3020 
    107 H107      -76.2439   28.2584  -75.9683 H         1 UNK         0.1245 
    108 H108      -76.8283   29.9608  -78.4425 H         1 UNK         0.0781 
    109 H109      -76.2865   30.5223  -76.8844 H         1 UNK         0.0781 
    110 H110      -79.5307   31.6629  -75.4531 H         1 UNK         0.0836 
    111 H111      -77.8635   31.9911  -75.8304 H         1 UNK         0.0836 
    112 H112      -78.1362   27.5938  -77.8088 H         1 UNK         0.3022 
    113 H113      -79.0053   25.6706  -78.1220 H         1 UNK         0.0747 
    114 H114      -78.6892   23.3829  -79.0575 H         1 UNK         0.0793 
    115 H115      -77.0063   23.3883  -78.5399 H         1 UNK         0.0793 
    116 H116      -77.5556   24.5354  -79.7455 H         1 UNK         0.0793 
    117 H117      -79.5718   24.8638  -76.1489 H         1 UNK         0.3047 
    118 H118      -79.0349   22.0833  -74.3290 H         1 UNK         0.0822 
    119 H119      -78.5065   23.4173  -72.2734 H         1 UNK         0.0807 
    120 H120      -77.8553   24.7143  -73.2763 H         1 UNK         0.0807 
    121 H121      -77.0693   23.1437  -73.2447 H         1 UNK         0.0807 
    122 H122      -80.2884   24.6416  -73.7448 H         1 UNK         0.2946 
    123 H123      -82.7016   24.8184  -75.5065 H         1 UNK         0.1144 
    124 H124      -84.0494   22.7775  -75.5877 H         1 UNK         0.0793 
    125 H125      -84.8172   23.9125  -74.4916 H         1 UNK         0.0793 
    126 H126      -83.9101   22.5412  -73.8543 H         1 UNK         0.0793 
    127 H127      -82.5595   26.0316  -73.6700 H         1 UNK         0.2896 
@<TRIPOS>BOND
     1    1    2 1    
     2    1   67 1    
     3    1   68 1    
     4    1   69 1    
     5    2    3 2    
     6    2    4 am   BACKBONE|DICT|INTERRES
     7    4    5 1    
     8    4   70 1    
     9    5    6 1    
    10    5   65 1    
    11    5   71 1    
    12    6    7 1    
    13    6   72 1    
    14    6   73 1    
    15    7    8 1    
    16    8    9 1    
    17    8   74 1    
    18    8   75 1    
    19    9   10 ar   
    20    9   14 ar   
    21   10   11 ar   
    22   10   76 1    
    23   11   12 ar   
    24   11   48 1    
    25   12   13 ar   
    26   12   77 1    
    27   13   14 ar   
    28   13   15 1    
    29   14   78 1    
    30   15   16 1    
    31   15   79 1    
    32   15   80 1    
    33   16   17 1    
    34   17   18 1    
    35   17   81 1    
    36   17   82 1    
    37   18   19 1    
    38   18   22 1    
    39   18   83 1    
    40   19   20 am   BACKBONE|DICT|INTERRES
    41   19   21 2    
    42   20   84 1    
    43   20   85 1    
    44   22   23 am   BACKBONE|DICT|INTERRES
    45   22   86 1    
    46   23   24 2    
    47   23   25 1    
    48   25   26 1    
    49   25   27 1    
    50   25   87 1    
    51   26   88 1    
    52   26   89 1    
    53   26   90 1    
    54   27   28 am   BACKBONE|DICT|INTERRES
    55   27   91 1    
    56   28   29 2    
    57   28   30 1    
    58   30   31 1    
    59   30   32 1    
    60   30   92 1    
    61   31   93 1    
    62   31   94 1    
    63   31   95 1    
    64   32   33 am   BACKBONE|DICT|INTERRES
    65   32   96 1    
    66   33   34 2    
    67   33   35 1    
    68   35   36 1    
    69   35   37 1    
    70   35   97 1    
    71   36   98 1    
    72   36   99 1    
    73   36  100 1    
    74   37   38 am   BACKBONE|DICT|INTERRES
    75   37  101 1    
    76   38   39 2    
    77   38   40 1    
    78   40   41 1    
    79   40   42 1    
    80   40  102 1    
    81   41  103 1    
    82   41  104 1    
    83   41  105 1    
    84   42   43 am   BACKBONE|DICT|INTERRES
    85   42  106 1    
    86   43   44 2    
    87   43   45 1    
    88   45   46 1    
    89   45   49 1    
    90   45  107 1    
    91   46   47 1    
    92   46  108 1    
    93   46  109 1    
    94   47   48 1    
    95   48  110 1    
    96   48  111 1    
    97   49   50 am   BACKBONE|DICT|INTERRES
    98   49  112 1    
    99   50   51 2    
   100   50   52 1    
   101   52   53 1    
   102   52   54 1    
   103   52  113 1    
   104   53  114 1    
   105   53  115 1    
   106   53  116 1    
   107   54   55 am   BACKBONE|DICT|INTERRES
   108   54  117 1    
   109   55   56 2    
   110   55   57 1    
   111   57   58 1    
   112   57   59 1    
   113   57  118 1    
   114   58  119 1    
   115   58  120 1    
   116   58  121 1    
   117   59   60 am   BACKBONE|DICT|INTERRES
   118   59  122 1    
   119   60   61 2    
   120   60   62 1    
   121   62   63 1    
   122   62   64 1    
   123   62  123 1    
   124   63  124 1    
   125   63  125 1    
   126   63  126 1    
   127   64   65 am   BACKBONE|DICT|INTERRES
   128   64  127 1    
   129   65   66 2    
@<TRIPOS>SUBSTRUCTURE
     1 UNK         1 GROUP             0       ****    0 ROOT    
