@<TRIPOS>MOLECULE
3R135
127   129    1
SMALL
USER_CHARGES


@<TRIPOS>ATOM
      1 CA        -79.5532   30.8319  -75.0722 C.3       0 UNK        -0.1998 
      2 C         -80.4619   29.6210  -74.9246 C.2       0 UNK         0.4909 
      3 O         -81.5623   29.6132  -75.4747 O.2       0 UNK        -0.5240 
      4 N         -79.9937   28.5939  -74.2024 N.am      1 UNK        -0.4739 
      5 CA        -80.6876   27.3429  -73.8447 C.3       1 UNK         0.0864 
      6 C6        -82.0278   27.5475  -73.0841 C.3       11 UNK        -0.0881 
      7 S7        -81.9550   28.7334  -71.6962 S.3       11 UNK        -0.2682 
      8 C8        -81.0118   27.8101  -70.4333 C.3       11 UNK         0.0289 
      9 C9        -79.4934   28.0107  -70.4611 C.ar      11 UNK        -0.0687 
     10 C10       -78.6848   27.0511  -69.8410 C.ar      11 UNK        -0.0823 
     11 C11       -77.2989   27.2175  -69.7802 C.ar      11 UNK        -0.0830 
     12 C12       -76.7199   28.3640  -70.3266 C.ar      11 UNK        -0.1021 
     13 C13       -77.4977   29.3023  -71.0059 C.ar      11 UNK        -0.0753 
     14 C14       -78.8862   29.1327  -71.0483 C.ar      11 UNK        -0.0933 
     15 C15       -76.8342   30.4868  -71.7012 C.3       11 UNK         0.0166 
     16 S16       -75.9427   29.9801  -73.2165 S.3       11 UNK        -0.2615 
     17 C17       -74.3098   29.4698  -72.5665 C.3       11 UNK        -0.0865 
     18 CA        -73.1176   30.1742  -73.2671 C.3       10 UNK         0.0862 
     19 C         -71.7953   29.9888  -72.4602 C.2       10 UNK         0.5551 
     20 N         -70.7175   29.4606  -73.0292 N.am      10 UNK        -0.7319 
     21 O         -71.7441   30.3441  -71.2854 O.2       10 UNK        -0.5018 
     22 N         -73.0114   29.7896  -74.6842 N.am      10 UNK        -0.4509 
     23 C         -72.4428   30.5480  -75.6303 C.2       10 UNK         0.4899 
     24 O         -72.0358   31.6939  -75.4308 O.2       10 UNK        -0.4839 
     25 CA        -72.2983   29.9164  -77.0305 C.3       9 UNK         0.0222 
     26 CB        -71.2800   30.6632  -77.9183 C.3       9 UNK        -0.1966 
     27 N         -71.9992   28.4769  -77.0120 N.am      9 UNK        -0.4218 
     28 C         -70.9518   27.8658  -76.4320 C.2       9 UNK         0.5020 
     29 O         -70.1041   28.4659  -75.7695 O.2       9 UNK        -0.5274 
     30 CA        -70.8310   26.3355  -76.5940 C.3       8 UNK         0.0270 
     31 CB        -70.3090   25.6695  -75.3070 C.3       8 UNK        -0.1976 
     32 N         -72.1139   25.7269  -76.9502 N.am      8 UNK        -0.4313 
     33 C         -72.4671   25.2946  -78.1703 C.2       8 UNK         0.5041 
     34 O         -71.7006   25.2621  -79.1332 O.2       8 UNK        -0.5577 
     35 CA        -73.9375   24.8639  -78.3670 C.3       7 UNK         0.0284 
     36 CB        -74.0776   23.3400  -78.2244 C.3       7 UNK        -0.1958 
     37 N         -74.8625   25.5198  -77.4372 N.am      7 UNK        -0.4454 
     38 C         -75.0495   26.8435  -77.3463 C.2       7 UNK         0.5089 
     39 O         -74.5912   27.6496  -78.1552 O.2       7 UNK        -0.5125 
     40 CA        -75.7660   27.3731  -76.0928 C.3       6 UNK         0.0408 
     41 CB        -77.1489   27.9388  -76.4348 C.3       6 UNK        -0.1791 
     42 N         -75.8808   26.4012  -74.9991 N.am      6 UNK        -0.4762 
     43 C         -74.8695   25.8725  -74.2975 C.2       6 UNK         0.5007 
     44 O         -73.6887   26.1124  -74.5511 O.2       6 UNK        -0.5032 
     45 CA        -75.2198   24.9294  -73.1219 C.3       5 UNK         0.0783 
     46 C46       -75.4754   25.7741  -71.8483 C.3       11 UNK        -0.0857 
     47 S47       -76.0097   24.8209  -70.3794 S.3       11 UNK        -0.2512 
     48 C48       -76.4056   26.1410  -69.1782 C.3       11 UNK         0.0225 
     49 N         -76.2939   23.9587  -73.4018 N.am      5 UNK        -0.4615 
     50 C         -77.5958   24.2053  -73.5941 C.2       4 UNK         0.5053 
     51 O         -78.0701   25.3298  -73.7557 O.2       4 UNK        -0.5105 
     52 CA        -78.5355   22.9966  -73.5699 C.3       4 UNK         0.0263 
     53 CB        -79.5374   23.1196  -72.4091 C.3       4 UNK        -0.1981 
     54 N         -79.2634   22.9318  -74.8322 N.am      4 UNK        -0.4224 
     55 C         -78.8745   22.2061  -75.8897 C.2       3 UNK         0.4895 
     56 O         -77.8924   21.4626  -75.8845 O.2       3 UNK        -0.5091 
     57 CA        -79.7147   22.3182  -77.1750 C.3       3 UNK         0.0250 
     58 CB        -80.7383   21.1738  -77.2505 C.3       3 UNK        -0.1996 
     59 N         -80.4135   23.5985  -77.3003 N.am      3 UNK        -0.4254 
     60 C         -79.8093   24.7746  -77.5149 C.2       2 UNK         0.5004 
     61 O         -78.5974   24.8956  -77.6953 O.2       2 UNK        -0.5226 
     62 CA        -80.6983   26.0313  -77.5192 C.3       2 UNK         0.0269 
     63 CB        -82.1783   25.7515  -77.8672 C.3       2 UNK        -0.1926 
     64 N         -80.5969   26.7784  -76.2599 N.am      2 UNK        -0.4687 
     65 C         -80.8708   26.3476  -75.0181 C.2       1 UNK         0.5165 
     66 O         -81.2543   25.2016  -74.7719 O.2       1 UNK        -0.5079 
     67 H67       -79.2915   30.9807  -76.1194 H         1 UNK         0.0900 
     68 H68       -78.6302   30.7221  -74.5039 H         1 UNK         0.0900 
     69 H69       -80.0626   31.7272  -74.7170 H         1 UNK         0.0900 
     70 H70       -79.0704   28.6722  -73.7987 H         1 UNK         0.2959 
     71 H71       -80.0134   26.8415  -73.1503 H         1 UNK         0.1079 
     72 H72       -82.3946   26.5944  -72.6980 H         1 UNK         0.0837 
     73 H73       -82.7978   27.9017  -73.7717 H         1 UNK         0.0837 
     74 H74       -81.3694   28.1266  -69.4528 H         1 UNK         0.0685 
     75 H75       -81.2517   26.7489  -70.5168 H         1 UNK         0.0685 
     76 H76       -79.1332   26.1679  -69.4065 H         1 UNK         0.1434 
     77 H77       -75.6492   28.4864  -70.2732 H         1 UNK         0.1329 
     78 H78       -79.4891   29.8819  -71.5407 H         1 UNK         0.1335 
     79 H79       -77.5873   31.2250  -71.9808 H         1 UNK         0.0680 
     80 H80       -76.1574   30.9960  -71.0138 H         1 UNK         0.0680 
     81 H81       -74.2164   28.3885  -72.6598 H         1 UNK         0.1032 
     82 H82       -74.2814   29.6863  -71.4987 H         1 UNK         0.1032 
     83 H83       -73.3219   31.2461  -73.2298 H         1 UNK         0.0461 
     84 H84       -70.7101   29.1855  -74.0053 H         1 UNK         0.3453 
     85 H85       -69.8786   29.3597  -72.4810 H         1 UNK         0.3453 
     86 H86       -73.2891   28.8472  -74.9132 H         1 UNK         0.2984 
     87 H87       -73.2766   30.0154  -77.5026 H         1 UNK         0.0554 
     88 H88       -71.2195   30.2198  -78.9121 H         1 UNK         0.0847 
     89 H89       -70.2799   30.6506  -77.4836 H         1 UNK         0.0847 
     90 H90       -71.5644   31.7080  -78.0499 H         1 UNK         0.0847 
     91 H91       -72.6640   27.9054  -77.5230 H         1 UNK         0.3141 
     92 H92       -70.0992   26.1592  -77.3847 H         1 UNK         0.0743 
     93 H93       -70.9573   25.8757  -74.4544 H         1 UNK         0.0784 
     94 H94       -70.2386   24.5878  -75.4210 H         1 UNK         0.0784 
     95 H95       -69.3117   26.0312  -75.0531 H         1 UNK         0.0784 
     96 H96       -72.8086   25.7290  -76.2066 H         1 UNK         0.3213 
     97 H97       -74.2298   25.1460  -79.3808 H         1 UNK         0.0855 
     98 H98       -73.8116   23.0010  -77.2223 H         1 UNK         0.0814 
     99 H99       -73.4244   22.8216  -78.9278 H         1 UNK         0.0814 
    100 H100      -75.0973   23.0135  -78.4306 H         1 UNK         0.0814 
    101 H101      -75.3032   24.9385  -76.7392 H         1 UNK         0.3105 
    102 H102      -75.1613   28.2017  -75.7218 H         1 UNK         0.0547 
    103 H103      -77.0915   28.6563  -77.2544 H         1 UNK         0.0837 
    104 H104      -77.8401   27.1538  -76.7325 H         1 UNK         0.0837 
    105 H105      -77.5739   28.4605  -75.5797 H         1 UNK         0.0837 
    106 H106      -76.8220   26.1429  -74.7019 H         1 UNK         0.3020 
    107 H107      -74.3262   24.3298  -72.9396 H         1 UNK         0.1245 
    108 H108      -76.2490   26.5055  -72.0809 H         1 UNK         0.0781 
    109 H109      -74.5808   26.3356  -71.5745 H         1 UNK         0.0781 
    110 H110      -75.4757   26.5801  -68.8133 H         1 UNK         0.0836 
    111 H111      -76.8926   25.6972  -68.3086 H         1 UNK         0.0836 
    112 H112      -76.0113   22.9918  -73.3243 H         1 UNK         0.3022 
    113 H113      -77.9560   22.0833  -73.4185 H         1 UNK         0.0747 
    114 H114      -80.2037   22.2579  -72.3680 H         1 UNK         0.0793 
    115 H115      -79.0175   23.1766  -71.4517 H         1 UNK         0.0793 
    116 H116      -80.1541   24.0152  -72.4970 H         1 UNK         0.0793 
    117 H117      -80.0355   23.5841  -74.9345 H         1 UNK         0.3047 
    118 H118      -79.0308   22.2223  -78.0213 H         1 UNK         0.0822 
    119 H119      -81.2885   21.1940  -78.1916 H         1 UNK         0.0807 
    120 H120      -81.4619   21.2240  -76.4357 H         1 UNK         0.0807 
    121 H121      -80.2436   20.2034  -77.1874 H         1 UNK         0.0807 
    122 H122      -81.4095   23.5964  -77.1336 H         1 UNK         0.2946 
    123 H123      -80.2967   26.6793  -78.3002 H         1 UNK         0.1144 
    124 H124      -82.6896   25.1742  -77.0965 H         1 UNK         0.0793 
    125 H125      -82.2648   25.2025  -78.8060 H         1 UNK         0.0793 
    126 H126      -82.7289   26.6840  -77.9925 H         1 UNK         0.0793 
    127 H127      -80.3052   27.7418  -76.3453 H         1 UNK         0.2896 
@<TRIPOS>BOND
     1    1    2 1    
     2    1   67 1    
     3    1   68 1    
     4    1   69 1    
     5    2    3 2    
     6    2    4 am   BACKBONE|DICT|INTERRES
     7    4    5 1    
     8    4   70 1    
     9    5    6 1    
    10    5   65 1    
    11    5   71 1    
    12    6    7 1    
    13    6   72 1    
    14    6   73 1    
    15    7    8 1    
    16    8    9 1    
    17    8   74 1    
    18    8   75 1    
    19    9   10 ar   
    20    9   14 ar   
    21   10   11 ar   
    22   10   76 1    
    23   11   12 ar   
    24   11   48 1    
    25   12   13 ar   
    26   12   77 1    
    27   13   14 ar   
    28   13   15 1    
    29   14   78 1    
    30   15   16 1    
    31   15   79 1    
    32   15   80 1    
    33   16   17 1    
    34   17   18 1    
    35   17   81 1    
    36   17   82 1    
    37   18   19 1    
    38   18   22 1    
    39   18   83 1    
    40   19   20 am   BACKBONE|DICT|INTERRES
    41   19   21 2    
    42   20   84 1    
    43   20   85 1    
    44   22   23 am   BACKBONE|DICT|INTERRES
    45   22   86 1    
    46   23   24 2    
    47   23   25 1    
    48   25   26 1    
    49   25   27 1    
    50   25   87 1    
    51   26   88 1    
    52   26   89 1    
    53   26   90 1    
    54   27   28 am   BACKBONE|DICT|INTERRES
    55   27   91 1    
    56   28   29 2    
    57   28   30 1    
    58   30   31 1    
    59   30   32 1    
    60   30   92 1    
    61   31   93 1    
    62   31   94 1    
    63   31   95 1    
    64   32   33 am   BACKBONE|DICT|INTERRES
    65   32   96 1    
    66   33   34 2    
    67   33   35 1    
    68   35   36 1    
    69   35   37 1    
    70   35   97 1    
    71   36   98 1    
    72   36   99 1    
    73   36  100 1    
    74   37   38 am   BACKBONE|DICT|INTERRES
    75   37  101 1    
    76   38   39 2    
    77   38   40 1    
    78   40   41 1    
    79   40   42 1    
    80   40  102 1    
    81   41  103 1    
    82   41  104 1    
    83   41  105 1    
    84   42   43 am   BACKBONE|DICT|INTERRES
    85   42  106 1    
    86   43   44 2    
    87   43   45 1    
    88   45   46 1    
    89   45   49 1    
    90   45  107 1    
    91   46   47 1    
    92   46  108 1    
    93   46  109 1    
    94   47   48 1    
    95   48  110 1    
    96   48  111 1    
    97   49   50 am   BACKBONE|DICT|INTERRES
    98   49  112 1    
    99   50   51 2    
   100   50   52 1    
   101   52   53 1    
   102   52   54 1    
   103   52  113 1    
   104   53  114 1    
   105   53  115 1    
   106   53  116 1    
   107   54   55 am   BACKBONE|DICT|INTERRES
   108   54  117 1    
   109   55   56 2    
   110   55   57 1    
   111   57   58 1    
   112   57   59 1    
   113   57  118 1    
   114   58  119 1    
   115   58  120 1    
   116   58  121 1    
   117   59   60 am   BACKBONE|DICT|INTERRES
   118   59  122 1    
   119   60   61 2    
   120   60   62 1    
   121   62   63 1    
   122   62   64 1    
   123   62  123 1    
   124   63  124 1    
   125   63  125 1    
   126   63  126 1    
   127   64   65 am   BACKBONE|DICT|INTERRES
   128   64  127 1    
   129   65   66 2    
@<TRIPOS>SUBSTRUCTURE
     1 UNK         1 GROUP             0       ****    0 ROOT    
