@<TRIPOS>MOLECULE
3R135
127   129    1
SMALL
USER_CHARGES


@<TRIPOS>ATOM
      1 CA        -81.2731   23.0428  -71.5264 C.3       0 UNK        -0.1998 
      2 C         -80.8442   24.1341  -72.4936 C.2       0 UNK         0.4909 
      3 O         -79.7447   24.0604  -73.0410 O.2       0 UNK        -0.5240 
      4 N         -81.7123   25.1307  -72.7209 N.am      1 UNK        -0.4739 
      5 CA        -81.5038   26.3310  -73.5508 C.3       1 UNK         0.0864 
      6 C6        -80.6440   27.4162  -72.8573 C.3       11 UNK        -0.0881 
      7 S7        -81.2816   27.9214  -71.2203 S.3       11 UNK        -0.2682 
      8 C8        -79.7463   28.0449  -70.2260 C.3       11 UNK         0.0289 
      9 C9        -78.7285   29.1032  -70.6703 C.ar      11 UNK        -0.0687 
     10 C10       -78.9918   30.0276  -71.6884 C.ar      11 UNK        -0.0823 
     11 C11       -78.0138   30.9259  -72.1188 C.ar      11 UNK        -0.0830 
     12 C12       -76.7737   30.9491  -71.4777 C.ar      11 UNK        -0.1021 
     13 C13       -76.5067   30.0739  -70.4200 C.ar      11 UNK        -0.0753 
     14 C14       -77.4839   29.1489  -70.0309 C.ar      11 UNK        -0.0933 
     15 C15       -75.1708   30.1591  -69.6874 C.3       11 UNK         0.0166 
     16 S16       -74.2757   28.5734  -69.5906 S.3       11 UNK        -0.2615 
     17 C17       -74.0227   28.1710  -71.3500 C.3       11 UNK        -0.0865 
     18 CA        -72.7383   28.7793  -71.9675 C.3       10 UNK         0.0862 
     19 C         -71.4501   28.1000  -71.4268 C.2       10 UNK         0.5551 
     20 N         -70.6632   28.8016  -70.6224 N.am      10 UNK        -0.7319 
     21 O         -71.1819   26.9327  -71.7040 O.2       10 UNK        -0.5018 
     22 N         -72.8213   28.6967  -73.4283 N.am      10 UNK        -0.4509 
     23 C         -72.0053   29.2888  -74.3064 C.2       10 UNK         0.4899 
     24 O         -71.1080   30.0727  -73.9923 O.2       10 UNK        -0.4839 
     25 CA        -72.2599   28.9432  -75.7882 C.3       9 UNK         0.0222 
     26 CB        -71.1627   29.4718  -76.7364 C.3       9 UNK        -0.1966 
     27 N         -72.4973   27.5077  -75.9964 N.am      9 UNK        -0.4218 
     28 C         -71.6476   26.4984  -75.7478 C.2       9 UNK         0.5020 
     29 O         -70.4854   26.6506  -75.3685 O.2       9 UNK        -0.5274 
     30 CA        -72.1741   25.0656  -75.9528 C.3       8 UNK         0.0270 
     31 CB        -72.5458   24.4244  -74.6067 C.3       8 UNK        -0.1976 
     32 N         -73.3098   24.9707  -76.8791 N.am      8 UNK        -0.4313 
     33 C         -73.1789   25.0537  -78.2109 C.2       8 UNK         0.5041 
     34 O         -72.1117   25.2936  -78.7777 O.2       8 UNK        -0.5577 
     35 CA        -74.4318   24.8174  -79.0610 C.3       7 UNK         0.0284 
     36 CB        -74.8417   23.3335  -79.0477 C.3       7 UNK        -0.1958 
     37 N         -75.5524   25.6534  -78.6210 N.am      7 UNK        -0.4454 
     38 C         -76.0652   26.6507  -79.3560 C.2       7 UNK         0.5089 
     39 O         -75.6119   27.0035  -80.4460 O.2       7 UNK        -0.5125 
     40 CA        -77.3132   27.3711  -78.8192 C.3       6 UNK         0.0408 
     41 CB        -78.5859   26.6396  -79.2653 C.3       6 UNK        -0.1791 
     42 N         -77.3402   27.5551  -77.3678 N.am      6 UNK        -0.4762 
     43 C         -76.5568   28.4243  -76.7134 C.2       6 UNK         0.5007 
     44 O         -75.6177   29.0292  -77.2303 O.2       6 UNK        -0.5032 
     45 CA        -76.9004   28.6672  -75.2345 C.3       5 UNK         0.0783 
     46 C46       -78.0970   29.6446  -75.0821 C.3       11 UNK        -0.0857 
     47 S47       -77.5176   31.3620  -74.8359 S.3       11 UNK        -0.2512 
     48 C48       -78.3144   31.8715  -73.2745 C.3       11 UNK         0.0225 
     49 N         -77.0996   27.3942  -74.5344 N.am      5 UNK        -0.4615 
     50 C         -76.0696   26.6746  -74.0722 C.2       4 UNK         0.5053 
     51 O         -74.8963   27.0174  -74.2001 O.2       4 UNK        -0.5105 
     52 CA        -76.3729   25.3396  -73.3833 C.3       4 UNK         0.0263 
     53 CB        -76.9253   25.5418  -71.9635 C.3       4 UNK        -0.1981 
     54 N         -77.2580   24.4742  -74.1586 N.am      4 UNK        -0.4224 
     55 C         -76.9652   23.9761  -75.3682 C.2       3 UNK         0.4895 
     56 O         -75.9690   24.2961  -76.0193 O.2       3 UNK        -0.5091 
     57 CA        -77.9484   22.9559  -75.9510 C.3       3 UNK         0.0250 
     58 CB        -77.9377   21.6505  -75.1378 C.3       3 UNK        -0.1996 
     59 N         -79.2981   23.5149  -75.9692 N.am      3 UNK        -0.4254 
     60 C         -80.0120   23.7437  -77.0783 C.2       2 UNK         0.5004 
     61 O         -79.6543   23.3870  -78.2013 O.2       2 UNK        -0.5226 
     62 CA        -81.3536   24.4914  -76.9390 C.3       2 UNK         0.0269 
     63 CB        -82.5223   23.5945  -77.3825 C.3       2 UNK        -0.1926 
     64 N         -81.6432   25.0051  -75.5969 N.am      2 UNK        -0.4687 
     65 C         -80.9983   26.0029  -74.9761 C.2       1 UNK         0.5165 
     66 O         -80.0290   26.5991  -75.4577 O.2       1 UNK        -0.5079 
     67 H67       -81.2808   22.0774  -72.0315 H         1 UNK         0.0900 
     68 H68       -80.5720   22.9867  -70.6942 H         1 UNK         0.0900 
     69 H69       -82.2683   23.2237  -71.1209 H         1 UNK         0.0900 
     70 H70       -82.6002   25.1082  -72.2386 H         1 UNK         0.2959 
     71 H71       -82.4953   26.7630  -73.6978 H         1 UNK         0.1079 
     72 H72       -79.6126   27.0843  -72.7628 H         1 UNK         0.0837 
     73 H73       -80.6228   28.3081  -73.4839 H         1 UNK         0.0837 
     74 H74       -80.0311   28.2566  -69.1946 H         1 UNK         0.0685 
     75 H75       -79.2649   27.0661  -70.2155 H         1 UNK         0.0685 
     76 H76       -79.9541   30.0488  -72.1756 H         1 UNK         0.1434 
     77 H77       -76.0221   31.6574  -71.7992 H         1 UNK         0.1329 
     78 H78       -77.2718   28.4609  -69.2238 H         1 UNK         0.1335 
     79 H79       -75.3538   30.5165  -68.6733 H         1 UNK         0.0680 
     80 H80       -74.5175   30.8962  -70.1568 H         1 UNK         0.0680 
     81 H81       -74.0154   27.0847  -71.4577 H         1 UNK         0.1032 
     82 H82       -74.8985   28.5107  -71.9037 H         1 UNK         0.1032 
     83 H83       -72.7107   29.8413  -71.7157 H         1 UNK         0.0461 
     84 H84       -70.8847   29.7552  -70.3821 H         1 UNK         0.3453 
     85 H85       -69.8306   28.3713  -70.2518 H         1 UNK         0.3453 
     86 H86       -73.5173   28.0446  -73.7872 H         1 UNK         0.2984 
     87 H87       -73.1902   29.4448  -76.0568 H         1 UNK         0.0554 
     88 H88       -71.0832   30.5577  -76.6727 H         1 UNK         0.0847 
     89 H89       -71.3833   29.2239  -77.7746 H         1 UNK         0.0847 
     90 H90       -70.1822   29.0612  -76.4939 H         1 UNK         0.0847 
     91 H91       -73.4412   27.2565  -76.2572 H         1 UNK         0.3141 
     92 H92       -71.3523   24.4814  -76.3733 H         1 UNK         0.0743 
     93 H93       -73.2990   25.0045  -74.0790 H         1 UNK         0.0784 
     94 H94       -72.9252   23.4106  -74.7347 H         1 UNK         0.0784 
     95 H95       -71.6743   24.3670  -73.9529 H         1 UNK         0.0784 
     96 H96       -74.2222   24.7486  -76.4836 H         1 UNK         0.3213 
     97 H97       -74.1608   25.0574  -80.0915 H         1 UNK         0.0855 
     98 H98       -75.0847   22.9763  -78.0478 H         1 UNK         0.0814 
     99 H99       -74.0332   22.7062  -79.4254 H         1 UNK         0.0814 
    100 H100      -75.7098   23.1588  -79.6834 H         1 UNK         0.0814 
    101 H101      -75.9610   25.4312  -77.7196 H         1 UNK         0.3105 
    102 H102      -77.3330   28.3648  -79.2727 H         1 UNK         0.0547 
    103 H103      -79.4863   27.1484  -78.9207 H         1 UNK         0.0837 
    104 H104      -78.6056   25.6195  -78.8879 H         1 UNK         0.0837 
    105 H105      -78.6411   26.5819  -80.3532 H         1 UNK         0.0837 
    106 H106      -78.0875   27.1003  -76.8588 H         1 UNK         0.3020 
    107 H107      -76.0240   29.1462  -74.7895 H         1 UNK         0.1245 
    108 H108      -78.7126   29.3519  -74.2368 H         1 UNK         0.0781 
    109 H109      -78.7729   29.6166  -75.9394 H         1 UNK         0.0781 
    110 H110      -79.3902   31.9521  -73.4380 H         1 UNK         0.0836 
    111 H111      -77.9739   32.8755  -73.0174 H         1 UNK         0.0836 
    112 H112      -78.0424   27.0318  -74.4761 H         1 UNK         0.3022 
    113 H113      -75.4257   24.8087  -73.2816 H         1 UNK         0.0747 
    114 H114      -76.2992   26.2207  -71.3842 H         1 UNK         0.0793 
    115 H115      -77.9297   25.9558  -71.9714 H         1 UNK         0.0793 
    116 H116      -76.9656   24.5972  -71.4210 H         1 UNK         0.0793 
    117 H117      -78.1309   24.2023  -73.7059 H         1 UNK         0.3047 
    118 H118      -77.6087   22.7244  -76.9629 H         1 UNK         0.0822 
    119 H119      -78.5732   20.8957  -75.6009 H         1 UNK         0.0807 
    120 H120      -78.2910   21.8005  -74.1168 H         1 UNK         0.0807 
    121 H121      -76.9308   21.2347  -75.0793 H         1 UNK         0.0807 
    122 H122      -79.6637   23.8395  -75.0805 H         1 UNK         0.2946 
    123 H123      -81.3016   25.3463  -77.6170 H         1 UNK         0.1144 
    124 H124      -83.4672   24.1381  -77.3724 H         1 UNK         0.0793 
    125 H125      -82.6279   22.7220  -76.7365 H         1 UNK         0.0793 
    126 H126      -82.3745   23.2299  -78.4001 H         1 UNK         0.0793 
    127 H127      -82.3948   24.5507  -75.0976 H         1 UNK         0.2896 
@<TRIPOS>BOND
     1    1    2 1    
     2    1   67 1    
     3    1   68 1    
     4    1   69 1    
     5    2    3 2    
     6    2    4 am   BACKBONE|DICT|INTERRES
     7    4    5 1    
     8    4   70 1    
     9    5    6 1    
    10    5   65 1    
    11    5   71 1    
    12    6    7 1    
    13    6   72 1    
    14    6   73 1    
    15    7    8 1    
    16    8    9 1    
    17    8   74 1    
    18    8   75 1    
    19    9   10 ar   
    20    9   14 ar   
    21   10   11 ar   
    22   10   76 1    
    23   11   12 ar   
    24   11   48 1    
    25   12   13 ar   
    26   12   77 1    
    27   13   14 ar   
    28   13   15 1    
    29   14   78 1    
    30   15   16 1    
    31   15   79 1    
    32   15   80 1    
    33   16   17 1    
    34   17   18 1    
    35   17   81 1    
    36   17   82 1    
    37   18   19 1    
    38   18   22 1    
    39   18   83 1    
    40   19   20 am   BACKBONE|DICT|INTERRES
    41   19   21 2    
    42   20   84 1    
    43   20   85 1    
    44   22   23 am   BACKBONE|DICT|INTERRES
    45   22   86 1    
    46   23   24 2    
    47   23   25 1    
    48   25   26 1    
    49   25   27 1    
    50   25   87 1    
    51   26   88 1    
    52   26   89 1    
    53   26   90 1    
    54   27   28 am   BACKBONE|DICT|INTERRES
    55   27   91 1    
    56   28   29 2    
    57   28   30 1    
    58   30   31 1    
    59   30   32 1    
    60   30   92 1    
    61   31   93 1    
    62   31   94 1    
    63   31   95 1    
    64   32   33 am   BACKBONE|DICT|INTERRES
    65   32   96 1    
    66   33   34 2    
    67   33   35 1    
    68   35   36 1    
    69   35   37 1    
    70   35   97 1    
    71   36   98 1    
    72   36   99 1    
    73   36  100 1    
    74   37   38 am   BACKBONE|DICT|INTERRES
    75   37  101 1    
    76   38   39 2    
    77   38   40 1    
    78   40   41 1    
    79   40   42 1    
    80   40  102 1    
    81   41  103 1    
    82   41  104 1    
    83   41  105 1    
    84   42   43 am   BACKBONE|DICT|INTERRES
    85   42  106 1    
    86   43   44 2    
    87   43   45 1    
    88   45   46 1    
    89   45   49 1    
    90   45  107 1    
    91   46   47 1    
    92   46  108 1    
    93   46  109 1    
    94   47   48 1    
    95   48  110 1    
    96   48  111 1    
    97   49   50 am   BACKBONE|DICT|INTERRES
    98   49  112 1    
    99   50   51 2    
   100   50   52 1    
   101   52   53 1    
   102   52   54 1    
   103   52  113 1    
   104   53  114 1    
   105   53  115 1    
   106   53  116 1    
   107   54   55 am   BACKBONE|DICT|INTERRES
   108   54  117 1    
   109   55   56 2    
   110   55   57 1    
   111   57   58 1    
   112   57   59 1    
   113   57  118 1    
   114   58  119 1    
   115   58  120 1    
   116   58  121 1    
   117   59   60 am   BACKBONE|DICT|INTERRES
   118   59  122 1    
   119   60   61 2    
   120   60   62 1    
   121   62   63 1    
   122   62   64 1    
   123   62  123 1    
   124   63  124 1    
   125   63  125 1    
   126   63  126 1    
   127   64   65 am   BACKBONE|DICT|INTERRES
   128   64  127 1    
   129   65   66 2    
@<TRIPOS>SUBSTRUCTURE
     1 UNK         1 GROUP             0       ****    0 ROOT    
