@<TRIPOS>MOLECULE
3R135
127   129    1
SMALL
USER_CHARGES


@<TRIPOS>ATOM
      1 CA        -84.5461   26.0132  -71.3266 C.3       0 UNK        -0.1998 
      2 C         -84.4529   26.5807  -72.7348 C.2       0 UNK         0.4909 
      3 O         -85.4664   26.6718  -73.4276 O.2       0 UNK        -0.5240 
      4 N         -83.2423   26.9570  -73.1665 N.am      1 UNK        -0.4739 
      5 CA        -82.9522   27.5180  -74.4938 C.3       1 UNK         0.0864 
      6 C6        -81.7518   28.4979  -74.4590 C.3       11 UNK        -0.0881 
      7 S7        -80.2376   27.8181  -73.6967 S.3       11 UNK        -0.2682 
      8 C8        -79.6917   29.2417  -72.6996 C.3       11 UNK         0.0289 
      9 C9        -78.2317   29.1055  -72.2959 C.ar      11 UNK        -0.0687 
     10 C10       -77.8703   28.2718  -71.2348 C.ar      11 UNK        -0.0823 
     11 C11       -76.5258   28.1128  -70.8845 C.ar      11 UNK        -0.0830 
     12 C12       -75.5426   28.8087  -71.5924 C.ar      11 UNK        -0.1021 
     13 C13       -75.8906   29.6502  -72.6524 C.ar      11 UNK        -0.0753 
     14 C14       -77.2388   29.7998  -72.9944 C.ar      11 UNK        -0.0933 
     15 C15       -74.8125   30.3334  -73.4817 C.3       11 UNK         0.0166 
     16 S16       -73.9892   31.6917  -72.5922 S.3       11 UNK        -0.2615 
     17 C17       -72.4598   30.8880  -71.9936 C.3       11 UNK        -0.0865 
     18 CA        -71.2626   31.0894  -72.9625 C.3       10 UNK         0.0862 
     19 C         -69.9178   30.6490  -72.3095 C.2       10 UNK         0.5551 
     20 N         -69.1414   29.7461  -72.8988 N.am      10 UNK        -0.7319 
     21 O         -69.5653   31.1477  -71.2435 O.2       10 UNK        -0.5018 
     22 N         -71.5244   30.4646  -74.2677 N.am      10 UNK        -0.4509 
     23 C         -71.0059   30.8565  -75.4364 C.2       10 UNK         0.4899 
     24 O         -70.2926   31.8520  -75.5716 O.2       10 UNK        -0.4839 
     25 CA        -71.3452   29.9720  -76.6548 C.3       9 UNK         0.0222 
     26 CB        -70.3569   30.1636  -77.8246 C.3       9 UNK        -0.1966 
     27 N         -71.4863   28.5449  -76.3254 N.am      9 UNK        -0.4218 
     28 C         -70.5558   27.7464  -75.7722 C.2       9 UNK         0.5020 
     29 O         -69.4408   28.1424  -75.4291 O.2       9 UNK        -0.5274 
     30 CA        -70.9201   26.2711  -75.5117 C.3       8 UNK         0.0270 
     31 CB        -70.9306   25.9818  -74.0005 C.3       8 UNK        -0.1976 
     32 N         -72.2071   25.8766  -76.0930 N.am      8 UNK        -0.4313 
     33 C         -72.3910   25.5850  -77.3908 C.2       8 UNK         0.5041 
     34 O         -71.4709   25.5369  -78.2081 O.2       8 UNK        -0.5577 
     35 CA        -73.8302   25.3217  -77.8839 C.3       7 UNK         0.0284 
     36 CB        -74.0592   23.8141  -78.0807 C.3       7 UNK        -0.1958 
     37 N         -74.8920   25.8522  -77.0234 N.am      7 UNK        -0.4454 
     38 C         -75.0395   27.1301  -76.6483 C.2       7 UNK         0.5089 
     39 O         -74.3070   28.0461  -77.0242 O.2       7 UNK        -0.5125 
     40 CA        -76.1327   27.4165  -75.6061 C.3       6 UNK         0.0408 
     41 CB        -77.4739   27.7151  -76.2902 C.3       6 UNK        -0.1791 
     42 N         -76.2867   26.3513  -74.6032 N.am      6 UNK        -0.4762 
     43 C         -75.3087   25.9037  -73.7976 C.2       6 UNK         0.5007 
     44 O         -74.1725   26.3781  -73.8026 O.2       6 UNK        -0.5032 
     45 CA        -75.5900   24.6595  -72.9215 C.3       5 UNK         0.0783 
     46 C46       -76.2865   24.9822  -71.5722 C.3       11 UNK        -0.0857 
     47 S47       -75.1557   25.7457  -70.3595 S.3       11 UNK        -0.2512 
     48 C48       -76.1324   27.1648  -69.7606 C.3       11 UNK         0.0225 
     49 N         -76.2489   23.5867  -73.6783 N.am      5 UNK        -0.4615 
     50 C         -77.5264   23.5511  -74.0721 C.2       4 UNK         0.5053 
     51 O         -78.3647   24.4033  -73.7720 O.2       4 UNK        -0.5105 
     52 CA        -77.9244   22.3866  -74.9915 C.3       4 UNK         0.0263 
     53 CB        -78.6365   21.2839  -74.1929 C.3       4 UNK        -0.1981 
     54 N         -78.8037   22.8480  -76.0649 N.am      4 UNK        -0.4224 
     55 C         -78.4959   23.7678  -76.9867 C.2       3 UNK         0.4895 
     56 O         -77.3678   24.2473  -77.1130 O.2       3 UNK        -0.5091 
     57 CA        -79.6252   24.2555  -77.9162 C.3       3 UNK         0.0250 
     58 CB        -79.7272   23.3585  -79.1645 C.3       3 UNK        -0.1996 
     59 N         -80.9441   24.4402  -77.2817 N.am      3 UNK        -0.4254 
     60 C         -81.7575   23.5291  -76.7273 C.2       2 UNK         0.5004 
     61 O         -81.4705   22.3352  -76.6187 O.2       2 UNK        -0.5226 
     62 CA        -83.1122   24.0377  -76.1957 C.3       2 UNK         0.0269 
     63 CB        -83.9306   22.9282  -75.5072 C.3       2 UNK        -0.1926 
     64 N         -82.9872   25.1640  -75.2653 N.am      2 UNK        -0.4687 
     65 C         -82.8296   26.4501  -75.6081 C.2       1 UNK         0.5165 
     66 O         -82.6216   26.8064  -76.7696 O.2       1 UNK        -0.5079 
     67 H67       -85.2177   26.6213  -70.7213 H         1 UNK         0.0900 
     68 H68       -83.5750   25.9868  -70.8325 H         1 UNK         0.0900 
     69 H69       -84.9395   24.9975  -71.3564 H         1 UNK         0.0900 
     70 H70       -82.4370   26.8554  -72.5635 H         1 UNK         0.2959 
     71 H71       -83.8182   28.1144  -74.7907 H         1 UNK         0.1079 
     72 H72       -82.0534   29.3862  -73.9019 H         1 UNK         0.0837 
     73 H73       -81.5067   28.8586  -75.4599 H         1 UNK         0.0837 
     74 H74       -79.8339   30.1616  -73.2691 H         1 UNK         0.0685 
     75 H75       -80.3203   29.3260  -71.8119 H         1 UNK         0.0685 
     76 H76       -78.6374   27.7268  -70.7017 H         1 UNK         0.1434 
     77 H77       -74.5037   28.6624  -71.3362 H         1 UNK         0.1329 
     78 H78       -77.5147   30.4343  -73.8254 H         1 UNK         0.1335 
     79 H79       -74.0860   29.5872  -73.8037 H         1 UNK         0.0680 
     80 H80       -75.2426   30.7421  -74.3973 H         1 UNK         0.0680 
     81 H81       -72.6307   29.8269  -71.8118 H         1 UNK         0.1032 
     82 H82       -72.2367   31.3236  -71.0176 H         1 UNK         0.1032 
     83 H83       -71.1608   32.1641  -73.1256 H         1 UNK         0.0461 
     84 H84       -69.3895   29.3342  -73.7914 H         1 UNK         0.3453 
     85 H85       -68.2753   29.4848  -72.4558 H         1 UNK         0.3453 
     86 H86       -72.0740   29.6198  -74.2534 H         1 UNK         0.2984 
     87 H87       -72.3279   30.2985  -76.9980 H         1 UNK         0.0554 
     88 H88       -70.6290   29.5440  -78.6790 H         1 UNK         0.0847 
     89 H89       -69.3361   29.9093  -77.5372 H         1 UNK         0.0847 
     90 H90       -70.3495   31.1992  -78.1670 H         1 UNK         0.0847 
     91 H91       -72.3930   28.1447  -76.5531 H         1 UNK         0.3141 
     92 H92       -70.1350   25.6604  -75.9626 H         1 UNK         0.0743 
     93 H93       -71.6118   26.6431  -73.4645 H         1 UNK         0.0784 
     94 H94       -71.2240   24.9530  -73.7912 H         1 UNK         0.0784 
     95 H95       -69.9388   26.1287  -73.5706 H         1 UNK         0.0784 
     96 H96       -73.0111   25.9224  -75.4749 H         1 UNK         0.3213 
     97 H97       -73.9279   25.8129  -78.8541 H         1 UNK         0.0855 
     98 H98       -74.0217   23.2742  -77.1337 H         1 UNK         0.0814 
     99 H99       -73.2988   23.3831  -78.7336 H         1 UNK         0.0814 
    100 H100      -75.0275   23.6164  -78.5412 H         1 UNK         0.0814 
    101 H101      -75.6089   25.1943  -76.7314 H         1 UNK         0.3105 
    102 H102      -75.8258   28.3166  -75.0782 H         1 UNK         0.0547 
    103 H103      -77.3495   28.4298  -77.1049 H         1 UNK         0.0837 
    104 H104      -77.9307   26.8193  -76.7080 H         1 UNK         0.0837 
    105 H105      -78.1774   28.1582  -75.5893 H         1 UNK         0.0837 
    106 H106      -77.1935   25.9003  -74.5353 H         1 UNK         0.3020 
    107 H107      -74.6084   24.2472  -72.6797 H         1 UNK         0.1245 
    108 H108      -77.1698   25.6016  -71.7290 H         1 UNK         0.0781 
    109 H109      -76.6540   24.0609  -71.1179 H         1 UNK         0.0781 
    110 H110      -77.0144   26.7919  -69.2374 H         1 UNK         0.0836 
    111 H111      -75.5462   27.7114  -69.0207 H         1 UNK         0.0836 
    112 H112      -75.6356   22.8450  -73.9868 H         1 UNK         0.3022 
    113 H113      -77.0276   21.9680  -75.4529 H         1 UNK         0.0747 
    114 H114      -78.8992   20.4392  -74.8300 H         1 UNK         0.0793 
    115 H115      -77.9974   20.9029  -73.3952 H         1 UNK         0.0793 
    116 H116      -79.5535   21.6520  -73.7302 H         1 UNK         0.0793 
    117 H117      -79.7642   22.5114  -76.0591 H         1 UNK         0.3047 
    118 H118      -79.3286   25.2492  -78.2557 H         1 UNK         0.0822 
    119 H119      -80.4543   23.7501  -79.8758 H         1 UNK         0.0807 
    120 H120      -80.0200   22.3389  -78.9122 H         1 UNK         0.0807 
    121 H121      -78.7679   23.3008  -79.6809 H         1 UNK         0.0807 
    122 H122      -81.2870   25.3965  -77.2726 H         1 UNK         0.2946 
    123 H123      -83.6808   24.3690  -77.0680 H         1 UNK         0.1144 
    124 H124      -84.9084   23.2935  -75.1921 H         1 UNK         0.0793 
    125 H125      -83.4188   22.5359  -74.6275 H         1 UNK         0.0793 
    126 H126      -84.1049   22.0908  -76.1845 H         1 UNK         0.0793 
    127 H127      -83.1128   24.9565  -74.2854 H         1 UNK         0.2896 
@<TRIPOS>BOND
     1    1    2 1    
     2    1   67 1    
     3    1   68 1    
     4    1   69 1    
     5    2    3 2    
     6    2    4 am   BACKBONE|DICT|INTERRES
     7    4    5 1    
     8    4   70 1    
     9    5    6 1    
    10    5   65 1    
    11    5   71 1    
    12    6    7 1    
    13    6   72 1    
    14    6   73 1    
    15    7    8 1    
    16    8    9 1    
    17    8   74 1    
    18    8   75 1    
    19    9   10 ar   
    20    9   14 ar   
    21   10   11 ar   
    22   10   76 1    
    23   11   12 ar   
    24   11   48 1    
    25   12   13 ar   
    26   12   77 1    
    27   13   14 ar   
    28   13   15 1    
    29   14   78 1    
    30   15   16 1    
    31   15   79 1    
    32   15   80 1    
    33   16   17 1    
    34   17   18 1    
    35   17   81 1    
    36   17   82 1    
    37   18   19 1    
    38   18   22 1    
    39   18   83 1    
    40   19   20 am   BACKBONE|DICT|INTERRES
    41   19   21 2    
    42   20   84 1    
    43   20   85 1    
    44   22   23 am   BACKBONE|DICT|INTERRES
    45   22   86 1    
    46   23   24 2    
    47   23   25 1    
    48   25   26 1    
    49   25   27 1    
    50   25   87 1    
    51   26   88 1    
    52   26   89 1    
    53   26   90 1    
    54   27   28 am   BACKBONE|DICT|INTERRES
    55   27   91 1    
    56   28   29 2    
    57   28   30 1    
    58   30   31 1    
    59   30   32 1    
    60   30   92 1    
    61   31   93 1    
    62   31   94 1    
    63   31   95 1    
    64   32   33 am   BACKBONE|DICT|INTERRES
    65   32   96 1    
    66   33   34 2    
    67   33   35 1    
    68   35   36 1    
    69   35   37 1    
    70   35   97 1    
    71   36   98 1    
    72   36   99 1    
    73   36  100 1    
    74   37   38 am   BACKBONE|DICT|INTERRES
    75   37  101 1    
    76   38   39 2    
    77   38   40 1    
    78   40   41 1    
    79   40   42 1    
    80   40  102 1    
    81   41  103 1    
    82   41  104 1    
    83   41  105 1    
    84   42   43 am   BACKBONE|DICT|INTERRES
    85   42  106 1    
    86   43   44 2    
    87   43   45 1    
    88   45   46 1    
    89   45   49 1    
    90   45  107 1    
    91   46   47 1    
    92   46  108 1    
    93   46  109 1    
    94   47   48 1    
    95   48  110 1    
    96   48  111 1    
    97   49   50 am   BACKBONE|DICT|INTERRES
    98   49  112 1    
    99   50   51 2    
   100   50   52 1    
   101   52   53 1    
   102   52   54 1    
   103   52  113 1    
   104   53  114 1    
   105   53  115 1    
   106   53  116 1    
   107   54   55 am   BACKBONE|DICT|INTERRES
   108   54  117 1    
   109   55   56 2    
   110   55   57 1    
   111   57   58 1    
   112   57   59 1    
   113   57  118 1    
   114   58  119 1    
   115   58  120 1    
   116   58  121 1    
   117   59   60 am   BACKBONE|DICT|INTERRES
   118   59  122 1    
   119   60   61 2    
   120   60   62 1    
   121   62   63 1    
   122   62   64 1    
   123   62  123 1    
   124   63  124 1    
   125   63  125 1    
   126   63  126 1    
   127   64   65 am   BACKBONE|DICT|INTERRES
   128   64  127 1    
   129   65   66 2    
@<TRIPOS>SUBSTRUCTURE
     1 UNK         1 GROUP             0       ****    0 ROOT    
