@<TRIPOS>MOLECULE
3R135
127   129    1
SMALL
USER_CHARGES


@<TRIPOS>ATOM
      1 CA        -84.5962   26.8896  -72.5345 C.3       0 UNK        -0.1998 
      2 C         -83.3677   26.8676  -71.6291 C.2       0 UNK         0.4909 
      3 O         -83.4346   26.3118  -70.5348 O.2       0 UNK        -0.5240 
      4 N         -82.2295   27.4561  -72.0238 N.am      1 UNK        -0.4739 
      5 CA        -81.9682   28.1227  -73.3084 C.3       1 UNK         0.0864 
      6 C6        -80.7292   29.0451  -73.2178 C.3       11 UNK        -0.0881 
      7 S7        -81.0261   30.5110  -72.1621 S.3       11 UNK        -0.2682 
      8 C8        -80.4392   30.0051  -70.5064 C.3       11 UNK         0.0289 
      9 C9        -79.0107   29.4815  -70.5255 C.ar      11 UNK        -0.0687 
     10 C10       -78.7510   28.1412  -70.2246 C.ar      11 UNK        -0.0823 
     11 C11       -77.4573   27.6269  -70.3461 C.ar      11 UNK        -0.0830 
     12 C12       -76.4103   28.4741  -70.7235 C.ar      11 UNK        -0.1021 
     13 C13       -76.6580   29.8178  -71.0148 C.ar      11 UNK        -0.0753 
     14 C14       -77.9569   30.3205  -70.8999 C.ar      11 UNK        -0.0933 
     15 C15       -75.5365   30.7081  -71.5218 C.3       11 UNK         0.0166 
     16 S16       -75.5238   30.7268  -73.3427 S.3       11 UNK        -0.2615 
     17 C17       -73.7700   30.3676  -73.6929 C.3       11 UNK        -0.0865 
     18 CA        -73.4304   30.4062  -75.2144 C.3       10 UNK         0.0862 
     19 C         -73.2339   31.8389  -75.8039 C.2       10 UNK         0.5551 
     20 N         -73.9627   32.8324  -75.3149 N.am      10 UNK        -0.7319 
     21 O         -72.4608   32.0549  -76.7363 O.2       10 UNK        -0.5018 
     22 N         -72.3357   29.4844  -75.5542 N.am      10 UNK        -0.4509 
     23 C         -71.0709   29.5903  -75.1233 C.2       10 UNK         0.4899 
     24 O         -70.6846   30.4593  -74.3384 O.2       10 UNK        -0.4839 
     25 CA        -70.0721   28.5463  -75.6618 C.3       9 UNK         0.0222 
     26 CB        -68.6922   28.6231  -74.9738 C.3       9 UNK        -0.1966 
     27 N         -70.5862   27.1731  -75.6203 N.am      9 UNK        -0.4218 
     28 C         -71.0331   26.4856  -74.5591 C.2       9 UNK         0.5020 
     29 O         -71.0762   26.9421  -73.4148 O.2       9 UNK        -0.5274 
     30 CA        -71.4862   25.0319  -74.8264 C.3       8 UNK         0.0270 
     31 CB        -72.1108   24.3716  -73.5827 C.3       8 UNK        -0.1976 
     32 N         -72.4243   24.9140  -75.9493 N.am      8 UNK        -0.4313 
     33 C         -72.1130   25.0300  -77.2477 C.2       8 UNK         0.5041 
     34 O         -70.9663   25.2252  -77.6544 O.2       8 UNK        -0.5577 
     35 CA        -73.2672   24.9755  -78.2614 C.3       7 UNK         0.0284 
     36 CB        -73.5996   23.5195  -78.6231 C.3       7 UNK        -0.1958 
     37 N         -74.4770   25.6620  -77.8011 N.am      7 UNK        -0.4454 
     38 C         -74.5640   26.9732  -77.5291 C.2       7 UNK         0.5089 
     39 O         -73.6317   27.7694  -77.6552 O.2       7 UNK        -0.5125 
     40 CA        -75.9128   27.4714  -76.9795 C.3       6 UNK         0.0408 
     41 CB        -76.9562   27.6040  -78.0993 C.3       6 UNK        -0.1791 
     42 N         -76.4319   26.6154  -75.9112 N.am      6 UNK        -0.4762 
     43 C         -75.8098   26.4042  -74.7410 C.2       6 UNK         0.5007 
     44 O         -74.7564   26.9483  -74.4125 O.2       6 UNK        -0.5032 
     45 CA        -76.4585   25.3852  -73.7865 C.3       5 UNK         0.0783 
     46 C46       -77.6265   26.0407  -73.0159 C.3       11 UNK        -0.0857 
     47 S47       -78.0563   25.1505  -71.4808 S.3       11 UNK        -0.2512 
     48 C48       -77.2095   26.1325  -70.1885 C.3       11 UNK         0.0225 
     49 N         -76.8784   24.1765  -74.5014 N.am      5 UNK        -0.4615 
     50 C         -76.0495   23.3257  -75.1215 C.2       4 UNK         0.5053 
     51 O         -74.8243   23.4295  -75.1075 O.2       4 UNK        -0.5105 
     52 CA        -76.7015   22.1943  -75.9340 C.3       4 UNK         0.0263 
     53 CB        -77.0885   21.0232  -75.0171 C.3       4 UNK        -0.1981 
     54 N         -77.8787   22.6451  -76.6809 N.am      4 UNK        -0.4224 
     55 C         -77.8502   23.5417  -77.6789 C.2       3 UNK         0.4895 
     56 O         -76.8160   24.0335  -78.1277 O.2       3 UNK        -0.5091 
     57 CA        -79.2082   24.0099  -78.2326 C.3       3 UNK         0.0250 
     58 CB        -79.6818   23.0804  -79.3610 C.3       3 UNK        -0.1996 
     59 N         -80.2467   24.1054  -77.1999 N.am      3 UNK        -0.4254 
     60 C         -80.1870   24.9297  -76.1443 C.2       2 UNK         0.5004 
     61 O         -79.2673   25.7301  -75.9604 O.2       2 UNK        -0.5226 
     62 CA        -81.2935   24.7551  -75.0883 C.3       2 UNK         0.0269 
     63 CB        -81.0429   23.4797  -74.2638 C.3       2 UNK        -0.1926 
     64 N         -81.4047   25.8813  -74.1577 N.am      2 UNK        -0.4687 
     65 C         -81.8250   27.1149  -74.4714 C.2       1 UNK         0.5165 
     66 O         -82.1521   27.4563  -75.6085 O.2       1 UNK        -0.5079 
     67 H67       -85.4571   26.4684  -72.0156 H         1 UNK         0.0900 
     68 H68       -84.4308   26.2957  -73.4327 H         1 UNK         0.0900 
     69 H69       -84.8561   27.9071  -72.8238 H         1 UNK         0.0900 
     70 H70       -81.4445   27.4336  -71.3913 H         1 UNK         0.2959 
     71 H71       -82.8253   28.7532  -73.5522 H         1 UNK         0.1079 
     72 H72       -80.4703   29.4276  -74.2074 H         1 UNK         0.0837 
     73 H73       -79.8507   28.4931  -72.8815 H         1 UNK         0.0837 
     74 H74       -80.4925   30.8655  -69.8381 H         1 UNK         0.0685 
     75 H75       -81.1237   29.2614  -70.0966 H         1 UNK         0.0685 
     76 H76       -79.5614   27.4783  -69.9544 H         1 UNK         0.1434 
     77 H77       -75.4123   28.0765  -70.8502 H         1 UNK         0.1329 
     78 H78       -78.1580   31.3527  -71.1531 H         1 UNK         0.1335 
     79 H79       -74.5780   30.3593  -71.1344 H         1 UNK         0.0680 
     80 H80       -75.6654   31.7264  -71.1523 H         1 UNK         0.0680 
     81 H81       -73.5699   29.3698  -73.2967 H         1 UNK         0.1032 
     82 H82       -73.1278   31.0482  -73.1306 H         1 UNK         0.1032 
     83 H83       -74.2838   30.0014  -75.7558 H         1 UNK         0.0461 
     84 H84       -74.6244   32.6545  -74.5733 H         1 UNK         0.3453 
     85 H85       -73.8614   33.7598  -75.6962 H         1 UNK         0.3453 
     86 H86       -72.5732   28.7609  -76.2254 H         1 UNK         0.2984 
     87 H87       -69.9268   28.7834  -76.7167 H         1 UNK         0.0554 
     88 H88       -67.9943   27.9032  -75.4011 H         1 UNK         0.0847 
     89 H89       -68.7633   28.4268  -73.9034 H         1 UNK         0.0847 
     90 H90       -68.2487   29.6123  -75.0943 H         1 UNK         0.0847 
     91 H91       -70.6054   26.6765  -76.5093 H         1 UNK         0.3141 
     92 H92       -70.5866   24.4670  -75.0787 H         1 UNK         0.0743 
     93 H93       -73.0187   24.8888  -73.2699 H         1 UNK         0.0784 
     94 H94       -72.3678   23.3294  -73.7734 H         1 UNK         0.0784 
     95 H95       -71.4187   24.3830  -72.7398 H         1 UNK         0.0784 
     96 H96       -73.3901   24.7170  -75.7032 H         1 UNK         0.3213 
     97 H97       -72.9303   25.4824  -79.1681 H         1 UNK         0.0855 
     98 H98       -73.9728   22.9652  -77.7616 H         1 UNK         0.0814 
     99 H99       -72.7158   22.9964  -78.9909 H         1 UNK         0.0814 
    100 H100      -74.3558   23.4682  -79.4066 H         1 UNK         0.0814 
    101 H101      -75.3170   25.0930  -77.7159 H         1 UNK         0.3105 
    102 H102      -75.7585   28.4627  -76.5525 H         1 UNK         0.0547 
    103 H103      -76.6121   28.2951  -78.8697 H         1 UNK         0.0837 
    104 H104      -77.1561   26.6498  -78.5860 H         1 UNK         0.0837 
    105 H105      -77.9021   27.9881  -77.7169 H         1 UNK         0.0837 
    106 H106      -77.3286   26.1638  -76.0714 H         1 UNK         0.3020 
    107 H107      -75.6859   25.0975  -73.0697 H         1 UNK         0.1245 
    108 H108      -78.5242   26.0793  -73.6287 H         1 UNK         0.0781 
    109 H109      -77.4095   27.0856  -72.8032 H         1 UNK         0.0781 
    110 H110      -76.1415   25.9118  -70.2240 H         1 UNK         0.0836 
    111 H111      -77.5573   25.8080  -69.2069 H         1 UNK         0.0836 
    112 H112      -77.8727   24.0402  -74.5943 H         1 UNK         0.3022 
    113 H113      -75.9640   21.8352  -76.6549 H         1 UNK         0.0747 
    114 H114      -77.4779   20.1821  -75.5909 H         1 UNK         0.0793 
    115 H115      -76.2215   20.6608  -74.4627 H         1 UNK         0.0793 
    116 H116      -77.8453   21.3111  -74.2861 H         1 UNK         0.0793 
    117 H117      -78.7734   22.2806  -76.3898 H         1 UNK         0.3047 
    118 H118      -79.0645   25.0084  -78.6508 H         1 UNK         0.0822 
    119 H119      -80.5980   23.4503  -79.8217 H         1 UNK         0.0807 
    120 H120      -79.8705   22.0679  -79.0018 H         1 UNK         0.0807 
    121 H121      -78.9306   23.0116  -80.1493 H         1 UNK         0.0807 
    122 H122      -81.0305   23.4738  -77.2862 H         1 UNK         0.2946 
    123 H123      -82.2469   24.6592  -75.6130 H         1 UNK         0.1144 
    124 H124      -80.1046   23.5339  -73.7099 H         1 UNK         0.0793 
    125 H125      -80.9981   22.5939  -74.8986 H         1 UNK         0.0793 
    126 H126      -81.8440   23.3117  -73.5434 H         1 UNK         0.0793 
    127 H127      -81.1556   25.6985  -73.1967 H         1 UNK         0.2896 
@<TRIPOS>BOND
     1    1    2 1    
     2    1   67 1    
     3    1   68 1    
     4    1   69 1    
     5    2    3 2    
     6    2    4 am   BACKBONE|DICT|INTERRES
     7    4    5 1    
     8    4   70 1    
     9    5    6 1    
    10    5   65 1    
    11    5   71 1    
    12    6    7 1    
    13    6   72 1    
    14    6   73 1    
    15    7    8 1    
    16    8    9 1    
    17    8   74 1    
    18    8   75 1    
    19    9   10 ar   
    20    9   14 ar   
    21   10   11 ar   
    22   10   76 1    
    23   11   12 ar   
    24   11   48 1    
    25   12   13 ar   
    26   12   77 1    
    27   13   14 ar   
    28   13   15 1    
    29   14   78 1    
    30   15   16 1    
    31   15   79 1    
    32   15   80 1    
    33   16   17 1    
    34   17   18 1    
    35   17   81 1    
    36   17   82 1    
    37   18   19 1    
    38   18   22 1    
    39   18   83 1    
    40   19   20 am   BACKBONE|DICT|INTERRES
    41   19   21 2    
    42   20   84 1    
    43   20   85 1    
    44   22   23 am   BACKBONE|DICT|INTERRES
    45   22   86 1    
    46   23   24 2    
    47   23   25 1    
    48   25   26 1    
    49   25   27 1    
    50   25   87 1    
    51   26   88 1    
    52   26   89 1    
    53   26   90 1    
    54   27   28 am   BACKBONE|DICT|INTERRES
    55   27   91 1    
    56   28   29 2    
    57   28   30 1    
    58   30   31 1    
    59   30   32 1    
    60   30   92 1    
    61   31   93 1    
    62   31   94 1    
    63   31   95 1    
    64   32   33 am   BACKBONE|DICT|INTERRES
    65   32   96 1    
    66   33   34 2    
    67   33   35 1    
    68   35   36 1    
    69   35   37 1    
    70   35   97 1    
    71   36   98 1    
    72   36   99 1    
    73   36  100 1    
    74   37   38 am   BACKBONE|DICT|INTERRES
    75   37  101 1    
    76   38   39 2    
    77   38   40 1    
    78   40   41 1    
    79   40   42 1    
    80   40  102 1    
    81   41  103 1    
    82   41  104 1    
    83   41  105 1    
    84   42   43 am   BACKBONE|DICT|INTERRES
    85   42  106 1    
    86   43   44 2    
    87   43   45 1    
    88   45   46 1    
    89   45   49 1    
    90   45  107 1    
    91   46   47 1    
    92   46  108 1    
    93   46  109 1    
    94   47   48 1    
    95   48  110 1    
    96   48  111 1    
    97   49   50 am   BACKBONE|DICT|INTERRES
    98   49  112 1    
    99   50   51 2    
   100   50   52 1    
   101   52   53 1    
   102   52   54 1    
   103   52  113 1    
   104   53  114 1    
   105   53  115 1    
   106   53  116 1    
   107   54   55 am   BACKBONE|DICT|INTERRES
   108   54  117 1    
   109   55   56 2    
   110   55   57 1    
   111   57   58 1    
   112   57   59 1    
   113   57  118 1    
   114   58  119 1    
   115   58  120 1    
   116   58  121 1    
   117   59   60 am   BACKBONE|DICT|INTERRES
   118   59  122 1    
   119   60   61 2    
   120   60   62 1    
   121   62   63 1    
   122   62   64 1    
   123   62  123 1    
   124   63  124 1    
   125   63  125 1    
   126   63  126 1    
   127   64   65 am   BACKBONE|DICT|INTERRES
   128   64  127 1    
   129   65   66 2    
@<TRIPOS>SUBSTRUCTURE
     1 UNK         1 GROUP             0       ****    0 ROOT    
