@<TRIPOS>MOLECULE
3R135
127   129    1
SMALL
USER_CHARGES


@<TRIPOS>ATOM
      1 CA        -84.4442   30.8026  -77.2352 C.3       0 UNK        -0.1998 
      2 C         -83.8458   29.5852  -76.5460 C.2       0 UNK         0.4909 
      3 O         -84.5369   28.5800  -76.3779 O.2       0 UNK        -0.5240 
      4 N         -82.5697   29.6743  -76.1451 N.am      1 UNK        -0.4739 
      5 CA        -81.7834   28.6123  -75.5075 C.3       1 UNK         0.0864 
      6 C6        -82.3314   28.2189  -74.1042 C.3       11 UNK        -0.0881 
      7 S7        -81.0615   27.4093  -73.0761 S.3       11 UNK        -0.2682 
      8 C8        -80.3651   28.8384  -72.1799 C.3       11 UNK         0.0289 
      9 C9        -78.9144   28.6091  -71.7709 C.ar      11 UNK        -0.0687 
     10 C10       -78.5773   27.5365  -70.9399 C.ar      11 UNK        -0.0823 
     11 C11       -77.2484   27.3200  -70.5685 C.ar      11 UNK        -0.0830 
     12 C12       -76.2600   28.1999  -71.0076 C.ar      11 UNK        -0.1021 
     13 C13       -76.5688   29.2647  -71.8577 C.ar      11 UNK        -0.0753 
     14 C14       -77.9042   29.4644  -72.2301 C.ar      11 UNK        -0.0933 
     15 C15       -75.4734   30.1577  -72.4430 C.3       11 UNK         0.0166 
     16 S16       -74.2009   30.7021  -71.2523 S.3       11 UNK        -0.2615 
     17 C17       -72.9295   29.3860  -71.3445 C.3       11 UNK        -0.0865 
     18 CA        -71.8081   29.6928  -72.3724 C.3       10 UNK         0.0862 
     19 C         -70.5120   28.8732  -72.0890 C.2       10 UNK         0.5551 
     20 N         -69.8943   28.2195  -73.0665 N.am      10 UNK        -0.7319 
     21 O         -70.0423   28.8414  -70.9541 O.2       10 UNK        -0.5018 
     22 N         -72.3052   29.5363  -73.7478 N.am      10 UNK        -0.4509 
     23 C         -71.9249   30.2855  -74.7884 C.2       10 UNK         0.4899 
     24 O         -71.1683   31.2539  -74.6964 O.2       10 UNK        -0.4839 
     25 CA        -72.4769   29.8638  -76.1643 C.3       9 UNK         0.0222 
     26 CB        -71.7872   30.5905  -77.3383 C.3       9 UNK        -0.1966 
     27 N         -72.4578   28.4103  -76.3787 N.am      9 UNK        -0.4218 
     28 C         -71.3919   27.5936  -76.3347 C.2       9 UNK         0.5020 
     29 O         -70.2552   27.9815  -76.0609 O.2       9 UNK        -0.5274 
     30 CA        -71.6036   26.0883  -76.6039 C.3       8 UNK         0.0270 
     31 CB        -71.1840   25.2625  -75.3756 C.3       8 UNK        -0.1976 
     32 N         -72.9761   25.7285  -76.9686 N.am      8 UNK        -0.4313 
     33 C         -73.5540   25.9603  -78.1549 C.2       8 UNK         0.5041 
     34 O         -72.9602   26.4260  -79.1278 O.2       8 UNK        -0.5577 
     35 CA        -75.0670   25.6845  -78.2487 C.3       7 UNK         0.0284 
     36 CB        -75.3384   24.2222  -78.6353 C.3       7 UNK        -0.1958 
     37 N         -75.7824   26.0112  -77.0092 N.am      7 UNK        -0.4454 
     38 C         -75.8427   27.2357  -76.4651 C.2       7 UNK         0.5089 
     39 O         -75.3486   28.2384  -76.9784 O.2       7 UNK        -0.5125 
     40 CA        -76.5068   27.3524  -75.0886 C.3       6 UNK         0.0408 
     41 CB        -78.0340   27.3920  -75.2209 C.3       6 UNK        -0.1791 
     42 N         -76.0936   26.2649  -74.1981 N.am      6 UNK        -0.4762 
     43 C         -74.8892   26.1864  -73.6101 C.2       6 UNK         0.5007 
     44 O         -74.0288   27.0643  -73.7075 O.2       6 UNK        -0.5032 
     45 CA        -74.5529   24.8871  -72.8417 C.3       5 UNK         0.0783 
     46 C46       -74.7693   24.9996  -71.3078 C.3       11 UNK        -0.0857 
     47 S47       -76.4821   24.6736  -70.7433 S.3       11 UNK        -0.2512 
     48 C48       -76.8705   26.1235  -69.7127 C.3       11 UNK         0.0225 
     49 N         -75.2182   23.7090  -73.4033 N.am      5 UNK        -0.4615 
     50 C         -74.9656   23.1782  -74.6051 C.2       4 UNK         0.5053 
     51 O         -74.0831   23.5866  -75.3576 O.2       4 UNK        -0.5105 
     52 CA        -75.8992   22.0432  -75.0639 C.3       4 UNK         0.0263 
     53 CB        -75.3927   20.6866  -74.5502 C.3       4 UNK        -0.1981 
     54 N         -77.2928   22.2441  -74.6436 N.am      4 UNK        -0.4224 
     55 C         -78.0487   23.2837  -75.0237 C.2       3 UNK         0.4895 
     56 O         -77.6532   24.1592  -75.7959 O.2       3 UNK        -0.5091 
     57 CA        -79.4349   23.4029  -74.3670 C.3       3 UNK         0.0250 
     58 CB        -79.3033   23.9683  -72.9430 C.3       3 UNK        -0.1996 
     59 N         -80.3389   24.2717  -75.1226 N.am      3 UNK        -0.4254 
     60 C         -80.9011   23.9605  -76.2988 C.2       2 UNK         0.5004 
     61 O         -80.7323   22.8801  -76.8669 O.2       2 UNK        -0.5226 
     62 CA        -81.8304   25.0062  -76.9431 C.3       2 UNK         0.0269 
     63 CB        -83.2349   24.4199  -77.1738 C.3       2 UNK        -0.1926 
     64 N         -81.9631   26.2213  -76.1303 N.am      2 UNK        -0.4687 
     65 C         -81.5502   27.4422  -76.4941 C.2       1 UNK         0.5165 
     66 O         -80.9915   27.6782  -77.5673 O.2       1 UNK        -0.5079 
     67 H67       -85.3117   31.1588  -76.6803 H         1 UNK         0.0900 
     68 H68       -83.7299   31.6223  -77.3099 H         1 UNK         0.0900 
     69 H69       -84.7674   30.5418  -78.2426 H         1 UNK         0.0900 
     70 H70       -82.0561   30.5216  -76.3460 H         1 UNK         0.2959 
     71 H71       -80.7974   29.0546  -75.3560 H         1 UNK         0.1079 
     72 H72       -82.6763   29.1099  -73.5769 H         1 UNK         0.0837 
     73 H73       -83.2105   27.5765  -74.1760 H         1 UNK         0.0837 
     74 H74       -80.4400   29.7294  -72.8051 H         1 UNK         0.0685 
     75 H75       -80.9671   29.0324  -71.2913 H         1 UNK         0.0685 
     76 H76       -79.3489   26.8588  -70.6006 H         1 UNK         0.1434 
     77 H77       -75.2444   28.0304  -70.6969 H         1 UNK         0.1329 
     78 H78       -78.1564   30.2804  -72.8933 H         1 UNK         0.1335 
     79 H79       -74.9929   29.6393  -73.2707 H         1 UNK         0.0680 
     80 H80       -75.9214   31.0557  -72.8709 H         1 UNK         0.0680 
     81 H81       -72.5198   29.2934  -70.3370 H         1 UNK         0.1032 
     82 H82       -73.3727   28.4189  -71.5714 H         1 UNK         0.1032 
     83 H83       -71.5139   30.7334  -72.2243 H         1 UNK         0.0461 
     84 H84       -70.2198   28.2709  -74.0243 H         1 UNK         0.3453 
     85 H85       -69.0545   27.7058  -72.8536 H         1 UNK         0.3453 
     86 H86       -72.9019   28.7302  -73.9089 H         1 UNK         0.2984 
     87 H87       -73.5273   30.1577  -76.1686 H         1 UNK         0.0554 
     88 H88       -71.8999   31.6718  -77.2508 H         1 UNK         0.0847 
     89 H89       -72.2206   30.2975  -78.2945 H         1 UNK         0.0847 
     90 H90       -70.7185   30.3765  -77.3745 H         1 UNK         0.0847 
     91 H91       -73.3627   28.0066  -76.5963 H         1 UNK         0.3141 
     92 H92       -70.9500   25.8164  -77.4352 H         1 UNK         0.0743 
     93 H93       -71.7663   25.5318  -74.4946 H         1 UNK         0.0784 
     94 H94       -71.3106   24.1939  -75.5504 H         1 UNK         0.0784 
     95 H95       -70.1335   25.4268  -75.1319 H         1 UNK         0.0784 
     96 H96       -73.5200   25.2405  -76.2620 H         1 UNK         0.3213 
     97 H97       -75.4699   26.3252  -79.0360 H         1 UNK         0.0855 
     98 H98       -74.9326   23.5266  -77.9013 H         1 UNK         0.0814 
     99 H99       -74.8800   23.9837  -79.5959 H         1 UNK         0.0814 
    100 H100      -76.4070   24.0267  -78.7272 H         1 UNK         0.0814 
    101 H101      -76.2743   25.2539  -76.5400 H         1 UNK         0.3105 
    102 H102      -76.1931   28.2957  -74.6428 H         1 UNK         0.0547 
    103 H103      -78.3538   28.3201  -75.6951 H         1 UNK         0.0837 
    104 H104      -78.4261   26.5733  -75.8228 H         1 UNK         0.0837 
    105 H105      -78.5041   27.3433  -74.2429 H         1 UNK         0.0837 
    106 H106      -76.7225   25.4787  -74.1216 H         1 UNK         0.3020 
    107 H107      -73.4814   24.7388  -72.9932 H         1 UNK         0.1245 
    108 H108      -74.4109   25.9569  -70.9302 H         1 UNK         0.0781 
    109 H109      -74.1409   24.2559  -70.8155 H         1 UNK         0.0781 
    110 H110      -76.0248   26.3596  -69.0650 H         1 UNK         0.0836 
    111 H111      -77.6982   25.8697  -69.0487 H         1 UNK         0.0836 
    112 H112      -75.9598   23.3185  -72.8401 H         1 UNK         0.3022 
    113 H113      -75.8815   22.0234  -76.1554 H         1 UNK         0.0747 
    114 H114      -75.9949   19.8651  -74.9389 H         1 UNK         0.0793 
    115 H115      -74.3640   20.5098  -74.8679 H         1 UNK         0.0793 
    116 H116      -75.4114   20.6318  -73.4610 H         1 UNK         0.0793 
    117 H117      -77.6784   21.5646  -74.0032 H         1 UNK         0.3047 
    118 H118      -79.8807   22.4073  -74.3146 H         1 UNK         0.0822 
    119 H119      -78.7050   23.3110  -72.3115 H         1 UNK         0.0807 
    120 H120      -80.2773   24.0684  -72.4633 H         1 UNK         0.0807 
    121 H121      -78.8292   24.9512  -72.9369 H         1 UNK         0.0807 
    122 H122      -80.5005   25.1931  -74.7445 H         1 UNK         0.2946 
    123 H123      -81.3965   25.2424  -77.9173 H         1 UNK         0.1144 
    124 H124      -83.8889   25.1428  -77.6621 H         1 UNK         0.0793 
    125 H125      -83.7065   24.1210  -76.2369 H         1 UNK         0.0793 
    126 H126      -83.1940   23.5386  -77.8153 H         1 UNK         0.0793 
    127 H127      -82.4216   26.1178  -75.2355 H         1 UNK         0.2896 
@<TRIPOS>BOND
     1    1    2 1    
     2    1   67 1    
     3    1   68 1    
     4    1   69 1    
     5    2    3 2    
     6    2    4 am   BACKBONE|DICT|INTERRES
     7    4    5 1    
     8    4   70 1    
     9    5    6 1    
    10    5   65 1    
    11    5   71 1    
    12    6    7 1    
    13    6   72 1    
    14    6   73 1    
    15    7    8 1    
    16    8    9 1    
    17    8   74 1    
    18    8   75 1    
    19    9   10 ar   
    20    9   14 ar   
    21   10   11 ar   
    22   10   76 1    
    23   11   12 ar   
    24   11   48 1    
    25   12   13 ar   
    26   12   77 1    
    27   13   14 ar   
    28   13   15 1    
    29   14   78 1    
    30   15   16 1    
    31   15   79 1    
    32   15   80 1    
    33   16   17 1    
    34   17   18 1    
    35   17   81 1    
    36   17   82 1    
    37   18   19 1    
    38   18   22 1    
    39   18   83 1    
    40   19   20 am   BACKBONE|DICT|INTERRES
    41   19   21 2    
    42   20   84 1    
    43   20   85 1    
    44   22   23 am   BACKBONE|DICT|INTERRES
    45   22   86 1    
    46   23   24 2    
    47   23   25 1    
    48   25   26 1    
    49   25   27 1    
    50   25   87 1    
    51   26   88 1    
    52   26   89 1    
    53   26   90 1    
    54   27   28 am   BACKBONE|DICT|INTERRES
    55   27   91 1    
    56   28   29 2    
    57   28   30 1    
    58   30   31 1    
    59   30   32 1    
    60   30   92 1    
    61   31   93 1    
    62   31   94 1    
    63   31   95 1    
    64   32   33 am   BACKBONE|DICT|INTERRES
    65   32   96 1    
    66   33   34 2    
    67   33   35 1    
    68   35   36 1    
    69   35   37 1    
    70   35   97 1    
    71   36   98 1    
    72   36   99 1    
    73   36  100 1    
    74   37   38 am   BACKBONE|DICT|INTERRES
    75   37  101 1    
    76   38   39 2    
    77   38   40 1    
    78   40   41 1    
    79   40   42 1    
    80   40  102 1    
    81   41  103 1    
    82   41  104 1    
    83   41  105 1    
    84   42   43 am   BACKBONE|DICT|INTERRES
    85   42  106 1    
    86   43   44 2    
    87   43   45 1    
    88   45   46 1    
    89   45   49 1    
    90   45  107 1    
    91   46   47 1    
    92   46  108 1    
    93   46  109 1    
    94   47   48 1    
    95   48  110 1    
    96   48  111 1    
    97   49   50 am   BACKBONE|DICT|INTERRES
    98   49  112 1    
    99   50   51 2    
   100   50   52 1    
   101   52   53 1    
   102   52   54 1    
   103   52  113 1    
   104   53  114 1    
   105   53  115 1    
   106   53  116 1    
   107   54   55 am   BACKBONE|DICT|INTERRES
   108   54  117 1    
   109   55   56 2    
   110   55   57 1    
   111   57   58 1    
   112   57   59 1    
   113   57  118 1    
   114   58  119 1    
   115   58  120 1    
   116   58  121 1    
   117   59   60 am   BACKBONE|DICT|INTERRES
   118   59  122 1    
   119   60   61 2    
   120   60   62 1    
   121   62   63 1    
   122   62   64 1    
   123   62  123 1    
   124   63  124 1    
   125   63  125 1    
   126   63  126 1    
   127   64   65 am   BACKBONE|DICT|INTERRES
   128   64  127 1    
   129   65   66 2    
@<TRIPOS>SUBSTRUCTURE
     1 UNK         1 GROUP             0       ****    0 ROOT    
