@<TRIPOS>MOLECULE
3R135
127   129    1
SMALL
USER_CHARGES


@<TRIPOS>ATOM
      1 CA        -80.7722   23.7851  -71.4382 C.3       0 UNK        -0.1998 
      2 C         -81.2632   24.4857  -72.6955 C.2       0 UNK         0.4909 
      3 O         -81.8558   23.8404  -73.5594 O.2       0 UNK        -0.5240 
      4 N         -81.0073   25.7969  -72.7963 N.am      1 UNK        -0.4739 
      5 CA        -81.3424   26.7115  -73.8967 C.3       1 UNK         0.0864 
      6 C6        -80.8010   28.1348  -73.6060 C.3       11 UNK        -0.0881 
      7 S7        -81.5219   28.8991  -72.1109 S.3       11 UNK        -0.2682 
      8 C8        -80.2955   28.5289  -70.7992 C.3       11 UNK         0.0289 
      9 C9        -78.8700   29.0316  -71.0415 C.ar      11 UNK        -0.0687 
     10 C10       -78.5924   30.1177  -71.8816 C.ar      11 UNK        -0.0823 
     11 C11       -77.2760   30.5356  -72.0952 C.ar      11 UNK        -0.0830 
     12 C12       -76.2343   29.8973  -71.4220 C.ar      11 UNK        -0.1021 
     13 C13       -76.4894   28.8156  -70.5775 C.ar      11 UNK        -0.0753 
     14 C14       -77.8090   28.3907  -70.3893 C.ar      11 UNK        -0.0933 
     15 C15       -75.3331   28.1116  -69.8807 C.3       11 UNK         0.0166 
     16 S16       -74.1790   27.3778  -71.0879 S.3       11 UNK        -0.2615 
     17 C17       -72.5719   28.0137  -70.4959 C.3       11 UNK        -0.0865 
     18 CA        -72.2752   29.4798  -70.9357 C.3       10 UNK         0.0862 
     19 C         -70.9719   30.0451  -70.2907 C.2       10 UNK         0.5551 
     20 N         -70.2372   30.9299  -70.9538 N.am      10 UNK        -0.7319 
     21 O         -70.6369   29.7057  -69.1583 O.2       10 UNK        -0.5018 
     22 N         -72.3928   29.6923  -72.3918 N.am      10 UNK        -0.4509 
     23 C         -71.6281   29.1369  -73.3401 C.2       10 UNK         0.4899 
     24 O         -70.6692   28.3935  -73.1197 O.2       10 UNK        -0.4839 
     25 CA        -71.9762   29.5303  -74.7873 C.3       9 UNK         0.0222 
     26 CB        -71.1868   30.7805  -75.2086 C.3       9 UNK        -0.1966 
     27 N         -71.7213   28.4534  -75.7486 N.am      9 UNK        -0.4218 
     28 C         -72.3589   27.2763  -75.7550 C.2       9 UNK         0.5020 
     29 O         -73.2197   26.9572  -74.9356 O.2       9 UNK        -0.5274 
     30 CA        -71.9634   26.2795  -76.8477 C.3       8 UNK         0.0270 
     31 CB        -70.9327   25.2661  -76.3146 C.3       8 UNK        -0.1976 
     32 N         -73.1674   25.5919  -77.3121 N.am      8 UNK        -0.4313 
     33 C         -73.2855   24.9434  -78.4779 C.2       8 UNK         0.5041 
     34 O         -72.3663   24.8195  -79.2888 O.2       8 UNK        -0.5577 
     35 CA        -74.6625   24.3527  -78.8144 C.3       7 UNK         0.0284 
     36 CB        -74.9419   23.0847  -77.9885 C.3       7 UNK        -0.1958 
     37 N         -75.7167   25.3378  -78.5809 N.am      7 UNK        -0.4454 
     38 C         -76.1767   26.1970  -79.4999 C.2       7 UNK         0.5089 
     39 O         -75.8137   26.1989  -80.6769 O.2       7 UNK        -0.5125 
     40 CA        -77.2235   27.2325  -79.0435 C.3       6 UNK         0.0408 
     41 CB        -78.6364   26.7528  -79.4002 C.3       6 UNK        -0.1791 
     42 N         -77.1628   27.5440  -77.6121 N.am      6 UNK        -0.4762 
     43 C         -76.1653   28.2338  -77.0388 C.2       6 UNK         0.5007 
     44 O         -75.2085   28.6952  -77.6622 O.2       6 UNK        -0.5032 
     45 CA        -76.2488   28.4488  -75.5134 C.3       5 UNK         0.0783 
     46 C46       -77.0468   29.7507  -75.2010 C.3       11 UNK        -0.0857 
     47 S47       -75.9812   31.0568  -74.4976 S.3       11 UNK        -0.2512 
     48 C48       -76.9709   31.6511  -73.0837 C.3       11 UNK         0.0225 
     49 N         -76.7400   27.2961  -74.7370 N.am      5 UNK        -0.4615 
     50 C         -76.3968   26.0041  -74.8730 C.2       4 UNK         0.5053 
     51 O         -75.6970   25.5644  -75.7844 O.2       4 UNK        -0.5105 
     52 CA        -76.9376   25.0061  -73.8411 C.3       4 UNK         0.0263 
     53 CB        -77.5196   25.6564  -72.5724 C.3       4 UNK        -0.1981 
     54 N         -77.9616   24.1910  -74.4910 N.am      4 UNK        -0.4224 
     55 C         -77.9106   22.8603  -74.6483 C.2       3 UNK         0.4895 
     56 O         -76.9879   22.1615  -74.2268 O.2       3 UNK        -0.5091 
     57 CA        -79.0819   22.1687  -75.3763 C.3       3 UNK         0.0250 
     58 CB        -79.7291   21.0961  -74.4821 C.3       3 UNK        -0.1996 
     59 N         -80.1216   23.1063  -75.8063 N.am      3 UNK        -0.4254 
     60 C         -80.1860   23.6808  -77.0151 C.2       2 UNK         0.5004 
     61 O         -79.4151   23.4214  -77.9382 O.2       2 UNK        -0.5226 
     62 CA        -81.2789   24.7492  -77.2217 C.3       2 UNK         0.0269 
     63 CB        -82.5360   24.1178  -77.8403 C.3       2 UNK        -0.1926 
     64 N         -81.6483   25.4575  -75.9909 N.am      2 UNK        -0.4687 
     65 C         -80.8098   26.1978  -75.2525 C.2       1 UNK         0.5165 
     66 O         -79.6402   26.4191  -75.5759 O.2       1 UNK        -0.5079 
     67 H67       -81.5713   23.1819  -71.0082 H         1 UNK         0.0900 
     68 H68       -79.9379   23.1265  -71.6773 H         1 UNK         0.0900 
     69 H69       -80.4394   24.4934  -70.6797 H         1 UNK         0.0900 
     70 H70       -80.5318   26.2439  -72.0282 H         1 UNK         0.2959 
     71 H71       -82.4310   26.7670  -73.9606 H         1 UNK         0.1079 
     72 H72       -81.0290   28.7992  -74.4419 H         1 UNK         0.0837 
     73 H73       -79.7141   28.1278  -73.5269 H         1 UNK         0.0837 
     74 H74       -80.6544   28.9734  -69.8701 H         1 UNK         0.0685 
     75 H75       -80.2828   27.4520  -70.6308 H         1 UNK         0.0685 
     76 H76       -79.3967   30.6276  -72.3927 H         1 UNK         0.1434 
     77 H77       -75.2171   30.2212  -71.5853 H         1 UNK         0.1329 
     78 H78       -78.0104   27.5536  -69.7348 H         1 UNK         0.1335 
     79 H79       -75.6962   27.3228  -69.2202 H         1 UNK         0.0680 
     80 H80       -74.8177   28.8324  -69.2450 H         1 UNK         0.0680 
     81 H81       -71.7895   27.3477  -70.8630 H         1 UNK         0.1032 
     82 H82       -72.5498   27.9217  -69.4084 H         1 UNK         0.1032 
     83 H83       -73.0612   30.0991  -70.5037 H         1 UNK         0.0461 
     84 H84       -70.5039   31.2223  -71.8796 H         1 UNK         0.3453 
     85 H85       -69.4027   31.2996  -70.5261 H         1 UNK         0.3453 
     86 H86       -73.1339   30.3138  -72.6797 H         1 UNK         0.2984 
     87 H87       -73.0417   29.7649  -74.8358 H         1 UNK         0.0554 
     88 H88       -70.1106   30.6030  -75.1922 H         1 UNK         0.0847 
     89 H89       -71.3891   31.6167  -74.5380 H         1 UNK         0.0847 
     90 H90       -71.4599   31.1039  -76.2133 H         1 UNK         0.0847 
     91 H91       -70.9952   28.6181  -76.4305 H         1 UNK         0.3141 
     92 H92       -71.5308   26.8310  -77.6852 H         1 UNK         0.0743 
     93 H93       -71.3438   24.6708  -75.4982 H         1 UNK         0.0784 
     94 H94       -70.6024   24.5812  -77.0955 H         1 UNK         0.0784 
     95 H95       -70.0457   25.7743  -75.9339 H         1 UNK         0.0784 
     96 H96       -73.9713   25.6658  -76.6883 H         1 UNK         0.3213 
     97 H97       -74.6582   24.0664  -79.8686 H         1 UNK         0.0855 
     98 H98       -74.9403   23.2822  -76.9161 H         1 UNK         0.0814 
     99 H99       -74.1847   22.3233  -78.1794 H         1 UNK         0.0814 
    100 H100      -75.9095   22.6524  -78.2446 H         1 UNK         0.0814 
    101 H101      -76.0090   25.4555  -77.6135 H         1 UNK         0.3105 
    102 H102      -77.0343   28.1564  -79.5941 H         1 UNK         0.0547 
    103 H103      -78.7444   26.6305  -80.4787 H         1 UNK         0.0837 
    104 H104      -78.8476   25.7874  -78.9445 H         1 UNK         0.0837 
    105 H105      -79.3984   27.4610  -79.0745 H         1 UNK         0.0837 
    106 H106      -77.9064   27.1881  -77.0225 H         1 UNK         0.3020 
    107 H107      -75.2168   28.5764  -75.1843 H         1 UNK         0.1245 
    108 H108      -77.8748   29.5427  -74.5248 H         1 UNK         0.0781 
    109 H109      -77.5297   30.1741  -76.0849 H         1 UNK         0.0781 
    110 H110      -77.8895   32.1047  -73.4592 H         1 UNK         0.0836 
    111 H111      -76.4227   32.4439  -72.5730 H         1 UNK         0.0836 
    112 H112      -77.3271   27.5307  -73.9519 H         1 UNK         0.3022 
    113 H113      -76.0886   24.3902  -73.5375 H         1 UNK         0.0747 
    114 H114      -77.8631   24.8998  -71.8674 H         1 UNK         0.0793 
    115 H115      -76.7597   26.2456  -72.0600 H         1 UNK         0.0793 
    116 H116      -78.3578   26.3142  -72.7901 H         1 UNK         0.0793 
    117 H117      -78.7064   24.7103  -74.9421 H         1 UNK         0.3047 
    118 H118      -78.6588   21.6656  -76.2485 H         1 UNK         0.0822 
    119 H119      -80.5237   20.5690  -75.0103 H         1 UNK         0.0807 
    120 H120      -80.1590   21.5273  -73.5781 H         1 UNK         0.0807 
    121 H121      -78.9986   20.3478  -74.1718 H         1 UNK         0.0807 
    122 H122      -80.8081   23.3743  -75.1042 H         1 UNK         0.2946 
    123 H123      -80.8902   25.4892  -77.9223 H         1 UNK         0.1144 
    124 H124      -82.2962   23.6047  -78.7728 H         1 UNK         0.0793 
    125 H125      -83.2871   24.8731  -78.0723 H         1 UNK         0.0793 
    126 H126      -82.9900   23.3849  -77.1720 H         1 UNK         0.0793 
    127 H127      -82.5693   25.2650  -75.6216 H         1 UNK         0.2896 
@<TRIPOS>BOND
     1    1    2 1    
     2    1   67 1    
     3    1   68 1    
     4    1   69 1    
     5    2    3 2    
     6    2    4 am   BACKBONE|DICT|INTERRES
     7    4    5 1    
     8    4   70 1    
     9    5    6 1    
    10    5   65 1    
    11    5   71 1    
    12    6    7 1    
    13    6   72 1    
    14    6   73 1    
    15    7    8 1    
    16    8    9 1    
    17    8   74 1    
    18    8   75 1    
    19    9   10 ar   
    20    9   14 ar   
    21   10   11 ar   
    22   10   76 1    
    23   11   12 ar   
    24   11   48 1    
    25   12   13 ar   
    26   12   77 1    
    27   13   14 ar   
    28   13   15 1    
    29   14   78 1    
    30   15   16 1    
    31   15   79 1    
    32   15   80 1    
    33   16   17 1    
    34   17   18 1    
    35   17   81 1    
    36   17   82 1    
    37   18   19 1    
    38   18   22 1    
    39   18   83 1    
    40   19   20 am   BACKBONE|DICT|INTERRES
    41   19   21 2    
    42   20   84 1    
    43   20   85 1    
    44   22   23 am   BACKBONE|DICT|INTERRES
    45   22   86 1    
    46   23   24 2    
    47   23   25 1    
    48   25   26 1    
    49   25   27 1    
    50   25   87 1    
    51   26   88 1    
    52   26   89 1    
    53   26   90 1    
    54   27   28 am   BACKBONE|DICT|INTERRES
    55   27   91 1    
    56   28   29 2    
    57   28   30 1    
    58   30   31 1    
    59   30   32 1    
    60   30   92 1    
    61   31   93 1    
    62   31   94 1    
    63   31   95 1    
    64   32   33 am   BACKBONE|DICT|INTERRES
    65   32   96 1    
    66   33   34 2    
    67   33   35 1    
    68   35   36 1    
    69   35   37 1    
    70   35   97 1    
    71   36   98 1    
    72   36   99 1    
    73   36  100 1    
    74   37   38 am   BACKBONE|DICT|INTERRES
    75   37  101 1    
    76   38   39 2    
    77   38   40 1    
    78   40   41 1    
    79   40   42 1    
    80   40  102 1    
    81   41  103 1    
    82   41  104 1    
    83   41  105 1    
    84   42   43 am   BACKBONE|DICT|INTERRES
    85   42  106 1    
    86   43   44 2    
    87   43   45 1    
    88   45   46 1    
    89   45   49 1    
    90   45  107 1    
    91   46   47 1    
    92   46  108 1    
    93   46  109 1    
    94   47   48 1    
    95   48  110 1    
    96   48  111 1    
    97   49   50 am   BACKBONE|DICT|INTERRES
    98   49  112 1    
    99   50   51 2    
   100   50   52 1    
   101   52   53 1    
   102   52   54 1    
   103   52  113 1    
   104   53  114 1    
   105   53  115 1    
   106   53  116 1    
   107   54   55 am   BACKBONE|DICT|INTERRES
   108   54  117 1    
   109   55   56 2    
   110   55   57 1    
   111   57   58 1    
   112   57   59 1    
   113   57  118 1    
   114   58  119 1    
   115   58  120 1    
   116   58  121 1    
   117   59   60 am   BACKBONE|DICT|INTERRES
   118   59  122 1    
   119   60   61 2    
   120   60   62 1    
   121   62   63 1    
   122   62   64 1    
   123   62  123 1    
   124   63  124 1    
   125   63  125 1    
   126   63  126 1    
   127   64   65 am   BACKBONE|DICT|INTERRES
   128   64  127 1    
   129   65   66 2    
@<TRIPOS>SUBSTRUCTURE
     1 UNK         1 GROUP             0       ****    0 ROOT    
