@<TRIPOS>MOLECULE
3R135
127   129    1
SMALL
USER_CHARGES


@<TRIPOS>ATOM
      1 CA        -83.8527   23.6943  -73.1175 C.3       0 UNK        -0.1998 
      2 C         -83.0630   24.9183  -73.5538 C.2       0 UNK         0.4909 
      3 O         -82.9915   25.2121  -74.7480 O.2       0 UNK        -0.5240 
      4 N         -82.4737   25.6380  -72.5898 N.am      1 UNK        -0.4739 
      5 CA        -81.7034   26.8653  -72.8173 C.3       1 UNK         0.0864 
      6 C6        -81.3979   27.5991  -71.4885 C.3       11 UNK        -0.0881 
      7 S7        -81.0880   29.3820  -71.7427 S.3       11 UNK        -0.2682 
      8 C8        -79.5884   29.6678  -70.7503 C.3       11 UNK         0.0289 
      9 C9        -78.3368   29.0695  -71.3790 C.ar      11 UNK        -0.0687 
     10 C10       -77.8233   27.8582  -70.9062 C.ar      11 UNK        -0.0823 
     11 C11       -76.6446   27.3297  -71.4390 C.ar      11 UNK        -0.0830 
     12 C12       -75.9714   28.0252  -72.4466 C.ar      11 UNK        -0.1021 
     13 C13       -76.4761   29.2337  -72.9330 C.ar      11 UNK        -0.0753 
     14 C14       -77.6626   29.7494  -72.3995 C.ar      11 UNK        -0.0933 
     15 C15       -75.7281   29.9817  -74.0253 C.3       11 UNK         0.0166 
     16 S16       -74.7718   31.3596  -73.3277 S.3       11 UNK        -0.2615 
     17 C17       -73.7927   31.8925  -74.7776 C.3       11 UNK        -0.0865 
     18 CA        -72.2895   32.1051  -74.4565 C.3       10 UNK         0.0862 
     19 C         -72.0579   33.3788  -73.5875 C.2       10 UNK         0.5551 
     20 N         -71.5863   33.2666  -72.3514 N.am      10 UNK        -0.7319 
     21 O         -72.3020   34.4897  -74.0527 O.2       10 UNK        -0.5018 
     22 N         -71.6648   30.8671  -73.9622 N.am      10 UNK        -0.4509 
     23 C         -70.3506   30.6421  -73.8589 C.2       10 UNK         0.4899 
     24 O         -69.4859   31.4472  -74.2050 O.2       10 UNK        -0.4839 
     25 CA        -69.9197   29.2838  -73.2794 C.3       9 UNK         0.0222 
     26 CB        -70.3161   29.1425  -71.7950 C.3       9 UNK        -0.1966 
     27 N         -70.3650   28.1372  -74.0829 N.am      9 UNK        -0.4218 
     28 C         -71.6131   27.6933  -74.2873 C.2       9 UNK         0.5020 
     29 O         -72.6199   28.1710  -73.7586 O.2       9 UNK        -0.5274 
     30 CA        -71.7446   26.4810  -75.2247 C.3       8 UNK         0.0270 
     31 CB        -71.6829   25.1761  -74.4154 C.3       8 UNK        -0.1976 
     32 N         -72.9827   26.5113  -76.0078 N.am      8 UNK        -0.4313 
     33 C         -73.2805   27.4418  -76.9277 C.2       8 UNK         0.5041 
     34 O         -72.5082   28.3488  -77.2463 O.2       8 UNK        -0.5577 
     35 CA        -74.6672   27.3580  -77.6016 C.3       7 UNK         0.0284 
     36 CB        -74.6920   28.0112  -78.9993 C.3       7 UNK        -0.1958 
     37 N         -75.2346   26.0060  -77.6562 N.am      7 UNK        -0.4454 
     38 C         -74.7246   24.9132  -78.2432 C.2       7 UNK         0.5089 
     39 O         -73.6662   24.8981  -78.8738 O.2       7 UNK        -0.5125 
     40 CA        -75.5426   23.6150  -78.0665 C.3       6 UNK         0.0408 
     41 CB        -74.7351   22.3454  -78.4075 C.3       6 UNK        -0.1791 
     42 N         -76.1532   23.4987  -76.7340 N.am      6 UNK        -0.4762 
     43 C         -75.5224   23.5014  -75.5482 C.2       6 UNK         0.5007 
     44 O         -74.2987   23.5670  -75.4386 O.2       6 UNK        -0.5032 
     45 CA        -76.3776   23.4659  -74.2618 C.3       5 UNK         0.0783 
     46 C46       -76.1291   24.7328  -73.4104 C.3       11 UNK        -0.0857 
     47 S47       -76.8619   24.5915  -71.7479 S.3       11 UNK        -0.2512 
     48 C48       -76.0933   26.0133  -70.9142 C.3       11 UNK         0.0225 
     49 N         -77.8076   23.2772  -74.5283 N.am      5 UNK        -0.4615 
     50 C         -78.3809   22.1049  -74.8237 C.2       4 UNK         0.5053 
     51 O         -77.7724   21.0361  -74.8730 O.2       4 UNK        -0.5105 
     52 CA        -79.8823   22.1383  -75.1482 C.3       4 UNK         0.0263 
     53 CB        -80.7157   22.0209  -73.8636 C.3       4 UNK        -0.1981 
     54 N         -80.2663   23.3454  -75.8879 N.am      4 UNK        -0.4224 
     55 C         -79.9304   23.5779  -77.1660 C.2       3 UNK         0.4895 
     56 O         -79.3081   22.7794  -77.8663 O.2       3 UNK        -0.5091 
     57 CA        -80.3158   24.9446  -77.7546 C.3       3 UNK         0.0250 
     58 CB        -81.7755   24.9409  -78.2353 C.3       3 UNK        -0.1996 
     59 N         -80.1069   26.0460  -76.8131 N.am      3 UNK        -0.4254 
     60 C         -78.9058   26.4499  -76.3731 C.2       2 UNK         0.5004 
     61 O         -77.8416   25.9567  -76.7383 O.2       2 UNK        -0.5226 
     62 CA        -78.8761   27.5770  -75.3306 C.3       2 UNK         0.0269 
     63 CB        -78.7343   28.9388  -76.0275 C.3       2 UNK        -0.1926 
     64 N         -80.0487   27.6017  -74.4560 N.am      2 UNK        -0.4687 
     65 C         -80.4262   26.6053  -73.6439 C.2       1 UNK         0.5165 
     66 O         -79.8287   25.5287  -73.5526 O.2       1 UNK        -0.5079 
     67 H67       -84.8612   23.9838  -72.8236 H         1 UNK         0.0900 
     68 H68       -83.9326   22.9781  -73.9349 H         1 UNK         0.0900 
     69 H69       -83.3757   23.1949  -72.2743 H         1 UNK         0.0900 
     70 H70       -82.5370   25.3274  -71.6309 H         1 UNK         0.2959 
     71 H71       -82.3537   27.5086  -73.4154 H         1 UNK         0.1079 
     72 H72       -80.5704   27.1250  -70.9594 H         1 UNK         0.0837 
     73 H73       -82.2553   27.5287  -70.8172 H         1 UNK         0.0837 
     74 H74       -79.7411   29.2749  -69.7437 H         1 UNK         0.0685 
     75 H75       -79.4501   30.7438  -70.6339 H         1 UNK         0.0685 
     76 H76       -78.3344   27.3270  -70.1152 H         1 UNK         0.1434 
     77 H77       -75.0512   27.6265  -72.8521 H         1 UNK         0.1329 
     78 H78       -78.0501   30.6904  -72.7651 H         1 UNK         0.1335 
     79 H79       -76.4288   30.3703  -74.7644 H         1 UNK         0.0680 
     80 H80       -75.0579   29.3029  -74.5557 H         1 UNK         0.0680 
     81 H81       -74.2352   32.8043  -75.1833 H         1 UNK         0.1032 
     82 H82       -73.8834   31.1494  -75.5716 H         1 UNK         0.1032 
     83 H83       -71.7999   32.3232  -75.4076 H         1 UNK         0.0461 
     84 H84       -71.4359   34.0962  -71.7997 H         1 UNK         0.3453 
     85 H85       -71.3950   32.3571  -71.9644 H         1 UNK         0.3453 
     86 H86       -72.2956   30.1177  -73.6917 H         1 UNK         0.2984 
     87 H87       -68.8294   29.2592  -73.3202 H         1 UNK         0.0554 
     88 H88       -69.8934   29.9546  -71.2022 H         1 UNK         0.0847 
     89 H89       -69.9435   28.2086  -71.3744 H         1 UNK         0.0847 
     90 H90       -71.3962   29.1653  -71.6481 H         1 UNK         0.0847 
     91 H91       -69.6232   27.6674  -74.5841 H         1 UNK         0.3141 
     92 H92       -70.9109   26.4916  -75.9300 H         1 UNK         0.0743 
     93 H93       -70.7666   25.1204  -73.8263 H         1 UNK         0.0784 
     94 H94       -71.6981   24.3036  -75.0689 H         1 UNK         0.0784 
     95 H95       -72.5213   25.0920  -73.7227 H         1 UNK         0.0784 
     96 H96       -73.6520   25.7755  -75.8246 H         1 UNK         0.3213 
     97 H97       -75.3380   27.9331  -76.9616 H         1 UNK         0.0855 
     98 H98       -73.9992   27.5221  -79.6847 H         1 UNK         0.0814 
     99 H99       -74.4094   29.0634  -78.9470 H         1 UNK         0.0814 
    100 H100      -75.6882   27.9676  -79.4396 H         1 UNK         0.0814 
    101 H101      -76.1490   25.9022  -77.2118 H         1 UNK         0.3105 
    102 H102      -76.3714   23.6801  -78.7729 H         1 UNK         0.0547 
    103 H103      -75.3407   21.4470  -78.2894 H         1 UNK         0.0837 
    104 H104      -73.8543   22.2429  -77.7730 H         1 UNK         0.0837 
    105 H105      -74.3892   22.3681  -79.4415 H         1 UNK         0.0837 
    106 H106      -77.1649   23.4940  -76.7214 H         1 UNK         0.3020 
    107 H107      -76.0198   22.6045  -73.6928 H         1 UNK         0.1245 
    108 H108      -76.5404   25.6127  -73.9073 H         1 UNK         0.0781 
    109 H109      -75.0600   24.9166  -73.2862 H         1 UNK         0.0781 
    110 H110      -75.0096   25.9726  -71.0355 H         1 UNK         0.0836 
    111 H111      -76.2805   25.9369  -69.8421 H         1 UNK         0.0836 
    112 H112      -78.3952   24.0982  -74.4371 H         1 UNK         0.3022 
    113 H113      -80.1027   21.2703  -75.7735 H         1 UNK         0.0747 
    114 H114      -81.7737   21.9071  -74.0945 H         1 UNK         0.0793 
    115 H115      -80.4189   21.1456  -73.2840 H         1 UNK         0.0793 
    116 H116      -80.5965   22.8934  -73.2200 H         1 UNK         0.0793 
    117 H117      -80.7538   24.0677  -75.3732 H         1 UNK         0.3047 
    118 H118      -79.6741   25.1219  -78.6207 H         1 UNK         0.0822 
    119 H119      -82.0339   25.8791  -78.7266 H         1 UNK         0.0807 
    120 H120      -82.4742   24.7901  -77.4114 H         1 UNK         0.0807 
    121 H121      -81.9458   24.1409  -78.9572 H         1 UNK         0.0807 
    122 H122      -80.9317   26.4949  -76.4407 H         1 UNK         0.2946 
    123 H123      -78.0013   27.4158  -74.6976 H         1 UNK         0.1144 
    124 H124      -78.6890   29.7530  -75.3047 H         1 UNK         0.0793 
    125 H125      -79.5700   29.1374  -76.6998 H         1 UNK         0.0793 
    126 H126      -77.8205   28.9791  -76.6221 H         1 UNK         0.0793 
    127 H127      -80.5813   28.4600  -74.4435 H         1 UNK         0.2896 
@<TRIPOS>BOND
     1    1    2 1    
     2    1   67 1    
     3    1   68 1    
     4    1   69 1    
     5    2    3 2    
     6    2    4 am   BACKBONE|DICT|INTERRES
     7    4    5 1    
     8    4   70 1    
     9    5    6 1    
    10    5   65 1    
    11    5   71 1    
    12    6    7 1    
    13    6   72 1    
    14    6   73 1    
    15    7    8 1    
    16    8    9 1    
    17    8   74 1    
    18    8   75 1    
    19    9   10 ar   
    20    9   14 ar   
    21   10   11 ar   
    22   10   76 1    
    23   11   12 ar   
    24   11   48 1    
    25   12   13 ar   
    26   12   77 1    
    27   13   14 ar   
    28   13   15 1    
    29   14   78 1    
    30   15   16 1    
    31   15   79 1    
    32   15   80 1    
    33   16   17 1    
    34   17   18 1    
    35   17   81 1    
    36   17   82 1    
    37   18   19 1    
    38   18   22 1    
    39   18   83 1    
    40   19   20 am   BACKBONE|DICT|INTERRES
    41   19   21 2    
    42   20   84 1    
    43   20   85 1    
    44   22   23 am   BACKBONE|DICT|INTERRES
    45   22   86 1    
    46   23   24 2    
    47   23   25 1    
    48   25   26 1    
    49   25   27 1    
    50   25   87 1    
    51   26   88 1    
    52   26   89 1    
    53   26   90 1    
    54   27   28 am   BACKBONE|DICT|INTERRES
    55   27   91 1    
    56   28   29 2    
    57   28   30 1    
    58   30   31 1    
    59   30   32 1    
    60   30   92 1    
    61   31   93 1    
    62   31   94 1    
    63   31   95 1    
    64   32   33 am   BACKBONE|DICT|INTERRES
    65   32   96 1    
    66   33   34 2    
    67   33   35 1    
    68   35   36 1    
    69   35   37 1    
    70   35   97 1    
    71   36   98 1    
    72   36   99 1    
    73   36  100 1    
    74   37   38 am   BACKBONE|DICT|INTERRES
    75   37  101 1    
    76   38   39 2    
    77   38   40 1    
    78   40   41 1    
    79   40   42 1    
    80   40  102 1    
    81   41  103 1    
    82   41  104 1    
    83   41  105 1    
    84   42   43 am   BACKBONE|DICT|INTERRES
    85   42  106 1    
    86   43   44 2    
    87   43   45 1    
    88   45   46 1    
    89   45   49 1    
    90   45  107 1    
    91   46   47 1    
    92   46  108 1    
    93   46  109 1    
    94   47   48 1    
    95   48  110 1    
    96   48  111 1    
    97   49   50 am   BACKBONE|DICT|INTERRES
    98   49  112 1    
    99   50   51 2    
   100   50   52 1    
   101   52   53 1    
   102   52   54 1    
   103   52  113 1    
   104   53  114 1    
   105   53  115 1    
   106   53  116 1    
   107   54   55 am   BACKBONE|DICT|INTERRES
   108   54  117 1    
   109   55   56 2    
   110   55   57 1    
   111   57   58 1    
   112   57   59 1    
   113   57  118 1    
   114   58  119 1    
   115   58  120 1    
   116   58  121 1    
   117   59   60 am   BACKBONE|DICT|INTERRES
   118   59  122 1    
   119   60   61 2    
   120   60   62 1    
   121   62   63 1    
   122   62   64 1    
   123   62  123 1    
   124   63  124 1    
   125   63  125 1    
   126   63  126 1    
   127   64   65 am   BACKBONE|DICT|INTERRES
   128   64  127 1    
   129   65   66 2    
@<TRIPOS>SUBSTRUCTURE
     1 UNK         1 GROUP             0       ****    0 ROOT    
