@<TRIPOS>MOLECULE
3R135
127   129    1
SMALL
USER_CHARGES


@<TRIPOS>ATOM
      1 CA        -84.6414   29.1981  -73.4837 C.3       0 UNK        -0.1998 
      2 C         -83.8653   28.6692  -74.6804 C.2       0 UNK         0.4909 
      3 O         -84.3951   27.8630  -75.4454 O.2       0 UNK        -0.5240 
      4 N         -82.6163   29.1222  -74.8490 N.am      1 UNK        -0.4739 
      5 CA        -81.6913   28.6969  -75.9081 C.3       1 UNK         0.0864 
      6 C6        -80.4839   29.6610  -76.0370 C.3       11 UNK        -0.0881 
      7 S7        -79.6273   29.9758  -74.4515 S.3       11 UNK        -0.2682 
      8 C8        -77.9414   29.4243  -74.8338 C.3       11 UNK         0.0289 
      9 C9        -77.2129   28.9903  -73.5740 C.ar      11 UNK        -0.0687 
     10 C10       -77.0822   27.6316  -73.2857 C.ar      11 UNK        -0.0823 
     11 C11       -76.3650   27.2052  -72.1648 C.ar      11 UNK        -0.0830 
     12 C12       -75.8216   28.1577  -71.2967 C.ar      11 UNK        -0.1021 
     13 C13       -75.9683   29.5245  -71.5602 C.ar      11 UNK        -0.0753 
     14 C14       -76.6568   29.9344  -72.7067 C.ar      11 UNK        -0.0933 
     15 C15       -75.4116   30.5658  -70.5999 C.3       11 UNK         0.0166 
     16 S16       -73.7552   31.1373  -71.0915 S.3       11 UNK        -0.2615 
     17 C17       -72.6937   29.8643  -70.3250 C.3       11 UNK        -0.0865 
     18 CA        -71.3584   29.6575  -71.0823 C.3       10 UNK         0.0862 
     19 C         -70.4609   28.6427  -70.3205 C.2       10 UNK         0.5551 
     20 N         -69.5849   29.1231  -69.4489 N.am      10 UNK        -0.7319 
     21 O         -70.5866   27.4298  -70.4778 O.2       10 UNK        -0.5018 
     22 N         -71.5972   29.2815  -72.4821 N.am      10 UNK        -0.4509 
     23 C         -70.6580   29.1222  -73.4229 C.2       10 UNK         0.4899 
     24 O         -69.4538   29.3026  -73.2386 O.2       10 UNK        -0.4839 
     25 CA        -71.1481   28.7034  -74.8189 C.3       9 UNK         0.0222 
     26 CB        -71.1402   27.1717  -74.9495 C.3       9 UNK        -0.1966 
     27 N         -72.4878   29.2048  -75.1322 N.am      9 UNK        -0.4218 
     28 C         -72.8109   30.4819  -75.3709 C.2       9 UNK         0.5020 
     29 O         -71.9952   31.4059  -75.3714 O.2       9 UNK        -0.5274 
     30 CA        -74.2953   30.7531  -75.6943 C.3       8 UNK         0.0270 
     31 CB        -74.6098   32.2516  -75.8578 C.3       8 UNK        -0.1976 
     32 N         -74.7437   30.0326  -76.8928 N.am      8 UNK        -0.4313 
     33 C         -74.9861   28.7178  -76.9416 C.2       8 UNK         0.5041 
     34 O         -74.8707   27.9719  -75.9642 O.2       8 UNK        -0.5577 
     35 CA        -75.3848   28.1212  -78.2951 C.3       7 UNK         0.0284 
     36 CB        -74.1557   27.9973  -79.2171 C.3       7 UNK        -0.1958 
     37 N         -75.9461   26.8075  -78.0085 N.am      7 UNK        -0.4454 
     38 C         -76.5857   25.9761  -78.8338 C.2       7 UNK         0.5089 
     39 O         -76.8054   26.2283  -80.0193 O.2       7 UNK        -0.5125 
     40 CA        -77.1024   24.6547  -78.2256 C.3       6 UNK         0.0408 
     41 CB        -76.9102   23.4536  -79.1743 C.3       6 UNK        -0.1791 
     42 N         -76.5899   24.3616  -76.8771 N.am      6 UNK        -0.4762 
     43 C         -75.3311   24.0504  -76.5148 C.2       6 UNK         0.5007 
     44 O         -74.3939   23.9444  -77.3054 O.2       6 UNK        -0.5032 
     45 CA        -75.0738   23.8359  -75.0105 C.3       5 UNK         0.0783 
     46 C46       -74.8122   25.1978  -74.3264 C.3       11 UNK        -0.0857 
     47 S47       -74.5792   25.1000  -72.5178 S.3       11 UNK        -0.2512 
     48 C48       -76.1800   25.7170  -71.8956 C.3       11 UNK         0.0225 
     49 N         -76.2003   23.1076  -74.4213 N.am      5 UNK        -0.4615 
     50 C         -76.1528   21.8271  -74.0305 C.2       4 UNK         0.5053 
     51 O         -75.1253   21.1490  -74.0055 O.2       4 UNK        -0.5105 
     52 CA        -77.4885   21.1764  -73.6235 C.3       4 UNK         0.0263 
     53 CB        -77.7379   21.3623  -72.1180 C.3       4 UNK        -0.1981 
     54 N         -78.6312   21.7062  -74.3721 N.am      4 UNK        -0.4224 
     55 C         -78.7826   21.6362  -75.7033 C.2       3 UNK         0.4895 
     56 O         -78.0502   20.9751  -76.4396 O.2       3 UNK        -0.5091 
     57 CA        -79.9207   22.4618  -76.3323 C.3       3 UNK         0.0250 
     58 CB        -81.0271   21.5349  -76.8623 C.3       3 UNK        -0.1996 
     59 N         -80.5249   23.4668  -75.4485 N.am      3 UNK        -0.4254 
     60 C         -79.9134   24.5339  -74.9130 C.2       2 UNK         0.5004 
     61 O         -78.7096   24.7806  -75.0381 O.2       2 UNK        -0.5226 
     62 CA        -80.8002   25.4346  -74.0338 C.3       2 UNK         0.0269 
     63 CB        -80.2733   25.4668  -72.5895 C.3       2 UNK        -0.1926 
     64 N         -80.9696   26.8109  -74.5132 N.am      2 UNK        -0.4687 
     65 C         -81.2736   27.2161  -75.7574 C.2       1 UNK         0.5165 
     66 O         -81.3093   26.4790  -76.7434 O.2       1 UNK        -0.5079 
     67 H67       -84.9297   28.3751  -72.8303 H         1 UNK         0.0900 
     68 H68       -85.5478   29.7025  -73.8174 H         1 UNK         0.0900 
     69 H69       -84.0553   29.9064  -72.8982 H         1 UNK         0.0900 
     70 H70       -82.2321   29.7853  -74.1898 H         1 UNK         0.2959 
     71 H71       -82.2442   28.7555  -76.8488 H         1 UNK         0.1079 
     72 H72       -79.7834   29.3024  -76.7935 H         1 UNK         0.0837 
     73 H73       -80.8361   30.6244  -76.4089 H         1 UNK         0.0837 
     74 H74       -77.9694   28.5967  -75.5447 H         1 UNK         0.0685 
     75 H75       -77.3989   30.2343  -75.3228 H         1 UNK         0.0685 
     76 H76       -77.5230   26.9044  -73.9534 H         1 UNK         0.1434 
     77 H77       -75.2868   27.8306  -70.4161 H         1 UNK         0.1329 
     78 H78       -76.7662   30.9885  -72.9220 H         1 UNK         0.1335 
     79 H79       -75.3836   30.1755  -69.5813 H         1 UNK         0.0680 
     80 H80       -76.0808   31.4272  -70.5721 H         1 UNK         0.0680 
     81 H81       -73.2360   28.9200  -70.2663 H         1 UNK         0.1032 
     82 H82       -72.5044   30.1686  -69.2936 H         1 UNK         0.1032 
     83 H83       -70.8337   30.6149  -71.1054 H         1 UNK         0.0461 
     84 H84       -69.0050   28.4805  -68.9320 H         1 UNK         0.3453 
     85 H85       -69.4819   30.1160  -69.3057 H         1 UNK         0.3453 
     86 H86       -72.5599   29.1146  -72.7333 H         1 UNK         0.2984 
     87 H87       -70.4548   29.1145  -75.5555 H         1 UNK         0.0554 
     88 H88       -71.4657   26.8526  -75.9399 H         1 UNK         0.0847 
     89 H89       -71.7924   26.7017  -74.2122 H         1 UNK         0.0847 
     90 H90       -70.1365   26.7738  -74.7938 H         1 UNK         0.0847 
     91 H91       -73.2411   28.5234  -75.2132 H         1 UNK         0.3141 
     92 H92       -74.8686   30.3920  -74.8390 H         1 UNK         0.0743 
     93 H93       -75.6765   32.4186  -76.0091 H         1 UNK         0.0784 
     94 H94       -74.3209   32.8091  -74.9656 H         1 UNK         0.0784 
     95 H95       -74.0764   32.6877  -76.7032 H         1 UNK         0.0784 
     96 H96       -74.8156   30.5743  -77.7425 H         1 UNK         0.3213 
     97 H97       -76.1504   28.7479  -78.7567 H         1 UNK         0.0855 
     98 H98       -73.3870   27.3614  -78.7756 H         1 UNK         0.0814 
     99 H99       -73.7041   28.9715  -79.4077 H         1 UNK         0.0814 
    100 H100      -74.4211   27.5745  -80.1860 H         1 UNK         0.0814 
    101 H101      -75.8185   26.5381  -77.0395 H         1 UNK         0.3105 
    102 H102      -78.1761   24.7993  -78.0993 H         1 UNK         0.0547 
    103 H103      -77.4443   23.6075  -80.1126 H         1 UNK         0.0837 
    104 H104      -75.8607   23.2967  -79.4237 H         1 UNK         0.0837 
    105 H105      -77.2922   22.5331  -78.7332 H         1 UNK         0.0837 
    106 H106      -77.2862   24.4761  -76.1426 H         1 UNK         0.3020 
    107 H107      -74.1597   23.2437  -74.9249 H         1 UNK         0.1245 
    108 H108      -75.6191   25.8885  -74.5532 H         1 UNK         0.0781 
    109 H109      -73.9146   25.6551  -74.7455 H         1 UNK         0.0781 
    110 H110      -76.2365   25.5299  -70.8224 H         1 UNK         0.0836 
    111 H111      -76.9887   25.1398  -72.3462 H         1 UNK         0.0836 
    112 H112      -77.0942   23.5831  -74.4221 H         1 UNK         0.3022 
    113 H113      -77.4163   20.1075  -73.8352 H         1 UNK         0.0747 
    114 H114      -78.6432   20.8463  -71.7979 H         1 UNK         0.0793 
    115 H115      -76.9113   20.9551  -71.5339 H         1 UNK         0.0793 
    116 H116      -77.8368   22.4153  -71.8506 H         1 UNK         0.0793 
    117 H117      -79.3022   22.2501  -73.8510 H         1 UNK         0.3047 
    118 H118      -79.4902   22.9939  -77.1820 H         1 UNK         0.0822 
    119 H119      -81.7909   22.0954  -77.4020 H         1 UNK         0.0807 
    120 H120      -81.5166   20.9878  -76.0555 H         1 UNK         0.0807 
    121 H121      -80.6217   20.7973  -77.5566 H         1 UNK         0.0807 
    122 H122      -81.5133   23.3508  -75.2750 H         1 UNK         0.2946 
    123 H123      -81.8015   24.9999  -74.0054 H         1 UNK         0.1144 
    124 H124      -80.9777   25.9625  -71.9214 H         1 UNK         0.0793 
    125 H125      -79.3226   25.9937  -72.5186 H         1 UNK         0.0793 
    126 H126      -80.1179   24.4591  -72.2015 H         1 UNK         0.0793 
    127 H127      -80.9487   27.5274  -73.8020 H         1 UNK         0.2896 
@<TRIPOS>BOND
     1    1    2 1    
     2    1   67 1    
     3    1   68 1    
     4    1   69 1    
     5    2    3 2    
     6    2    4 am   BACKBONE|DICT|INTERRES
     7    4    5 1    
     8    4   70 1    
     9    5    6 1    
    10    5   65 1    
    11    5   71 1    
    12    6    7 1    
    13    6   72 1    
    14    6   73 1    
    15    7    8 1    
    16    8    9 1    
    17    8   74 1    
    18    8   75 1    
    19    9   10 ar   
    20    9   14 ar   
    21   10   11 ar   
    22   10   76 1    
    23   11   12 ar   
    24   11   48 1    
    25   12   13 ar   
    26   12   77 1    
    27   13   14 ar   
    28   13   15 1    
    29   14   78 1    
    30   15   16 1    
    31   15   79 1    
    32   15   80 1    
    33   16   17 1    
    34   17   18 1    
    35   17   81 1    
    36   17   82 1    
    37   18   19 1    
    38   18   22 1    
    39   18   83 1    
    40   19   20 am   BACKBONE|DICT|INTERRES
    41   19   21 2    
    42   20   84 1    
    43   20   85 1    
    44   22   23 am   BACKBONE|DICT|INTERRES
    45   22   86 1    
    46   23   24 2    
    47   23   25 1    
    48   25   26 1    
    49   25   27 1    
    50   25   87 1    
    51   26   88 1    
    52   26   89 1    
    53   26   90 1    
    54   27   28 am   BACKBONE|DICT|INTERRES
    55   27   91 1    
    56   28   29 2    
    57   28   30 1    
    58   30   31 1    
    59   30   32 1    
    60   30   92 1    
    61   31   93 1    
    62   31   94 1    
    63   31   95 1    
    64   32   33 am   BACKBONE|DICT|INTERRES
    65   32   96 1    
    66   33   34 2    
    67   33   35 1    
    68   35   36 1    
    69   35   37 1    
    70   35   97 1    
    71   36   98 1    
    72   36   99 1    
    73   36  100 1    
    74   37   38 am   BACKBONE|DICT|INTERRES
    75   37  101 1    
    76   38   39 2    
    77   38   40 1    
    78   40   41 1    
    79   40   42 1    
    80   40  102 1    
    81   41  103 1    
    82   41  104 1    
    83   41  105 1    
    84   42   43 am   BACKBONE|DICT|INTERRES
    85   42  106 1    
    86   43   44 2    
    87   43   45 1    
    88   45   46 1    
    89   45   49 1    
    90   45  107 1    
    91   46   47 1    
    92   46  108 1    
    93   46  109 1    
    94   47   48 1    
    95   48  110 1    
    96   48  111 1    
    97   49   50 am   BACKBONE|DICT|INTERRES
    98   49  112 1    
    99   50   51 2    
   100   50   52 1    
   101   52   53 1    
   102   52   54 1    
   103   52  113 1    
   104   53  114 1    
   105   53  115 1    
   106   53  116 1    
   107   54   55 am   BACKBONE|DICT|INTERRES
   108   54  117 1    
   109   55   56 2    
   110   55   57 1    
   111   57   58 1    
   112   57   59 1    
   113   57  118 1    
   114   58  119 1    
   115   58  120 1    
   116   58  121 1    
   117   59   60 am   BACKBONE|DICT|INTERRES
   118   59  122 1    
   119   60   61 2    
   120   60   62 1    
   121   62   63 1    
   122   62   64 1    
   123   62  123 1    
   124   63  124 1    
   125   63  125 1    
   126   63  126 1    
   127   64   65 am   BACKBONE|DICT|INTERRES
   128   64  127 1    
   129   65   66 2    
@<TRIPOS>SUBSTRUCTURE
     1 UNK         1 GROUP             0       ****    0 ROOT    
