@<TRIPOS>MOLECULE
3R135
127   129    1
SMALL
USER_CHARGES


@<TRIPOS>ATOM
      1 CA        -85.4568   29.9311  -74.3647 C.3       0 UNK        -0.1998 
      2 C         -84.1329   29.2509  -74.6802 C.2       0 UNK         0.4909 
      3 O         -83.8616   28.9493  -75.8435 O.2       0 UNK        -0.5240 
      4 N         -83.3042   29.0164  -73.6555 N.am      1 UNK        -0.4739 
      5 CA        -82.0111   28.3307  -73.7659 C.3       1 UNK         0.0864 
      6 C6        -81.1031   28.6101  -72.5437 C.3       11 UNK        -0.0881 
      7 S7        -80.6995   30.3807  -72.3749 S.3       11 UNK        -0.2682 
      8 C8        -79.9182   30.4092  -70.7319 C.3       11 UNK         0.0289 
      9 C9        -78.5307   29.7839  -70.7519 C.ar      11 UNK        -0.0687 
     10 C10       -78.3630   28.4274  -70.4554 C.ar      11 UNK        -0.0823 
     11 C11       -77.0893   27.8514  -70.4518 C.ar      11 UNK        -0.0830 
     12 C12       -75.9785   28.6514  -70.7404 C.ar      11 UNK        -0.1021 
     13 C13       -76.1300   30.0067  -71.0436 C.ar      11 UNK        -0.0753 
     14 C14       -77.4106   30.5688  -71.0437 C.ar      11 UNK        -0.0933 
     15 C15       -74.8983   30.8577  -71.3299 C.3       11 UNK         0.0166 
     16 S16       -74.9858   31.7684  -72.9066 S.3       11 UNK        -0.2615 
     17 C17       -75.1543   30.4371  -74.1499 C.3       11 UNK        -0.0865 
     18 CA        -73.8634   30.0445  -74.9315 C.3       10 UNK         0.0862 
     19 C         -73.0926   31.1855  -75.6682 C.2       10 UNK         0.5551 
     20 N         -73.7302   32.3141  -75.9511 N.am      10 UNK        -0.7319 
     21 O         -71.9383   31.0292  -76.0615 O.2       10 UNK        -0.5018 
     22 N         -73.0431   29.0672  -74.2020 N.am      10 UNK        -0.4509 
     23 C         -72.0536   29.3062  -73.3322 C.2       10 UNK         0.4899 
     24 O         -71.7013   30.4267  -72.9629 O.2       10 UNK        -0.4839 
     25 CA        -71.3319   28.0777  -72.7459 C.3       9 UNK         0.0222 
     26 CB        -71.8354   27.7902  -71.3217 C.3       9 UNK        -0.1966 
     27 N         -71.4631   26.8559  -73.5464 N.am      9 UNK        -0.4218 
     28 C         -70.9043   26.6392  -74.7453 C.2       9 UNK         0.5020 
     29 O         -70.2120   27.4666  -75.3389 O.2       9 UNK        -0.5274 
     30 CA        -71.1353   25.2606  -75.3830 C.3       8 UNK         0.0270 
     31 CB        -71.4850   24.1556  -74.3643 C.3       8 UNK        -0.1976 
     32 N         -72.2089   25.3517  -76.3704 N.am      8 UNK        -0.4313 
     33 C         -72.0650   25.1787  -77.6910 C.2       8 UNK         0.5041 
     34 O         -70.9791   24.9695  -78.2353 O.2       8 UNK        -0.5577 
     35 CA        -73.3328   25.2018  -78.5703 C.3       7 UNK         0.0284 
     36 CB        -73.6225   23.7950  -79.1211 C.3       7 UNK        -0.1958 
     37 N         -74.5315   25.6861  -77.8830 N.am      7 UNK        -0.4454 
     38 C         -74.7958   26.9707  -77.6124 C.2       7 UNK         0.5089 
     39 O         -74.0807   27.9081  -77.9636 O.2       7 UNK        -0.5125 
     40 CA        -76.0533   27.2484  -76.7683 C.3       6 UNK         0.0408 
     41 CB        -77.2937   27.3526  -77.6677 C.3       6 UNK        -0.1791 
     42 N         -76.2830   26.2456  -75.7242 N.am      6 UNK        -0.4762 
     43 C         -75.4270   25.9281  -74.7403 C.2       6 UNK         0.5007 
     44 O         -74.3318   26.4704  -74.5874 O.2       6 UNK        -0.5032 
     45 CA        -75.8286   24.7608  -73.8218 C.3       5 UNK         0.0783 
     46 C46       -76.7304   25.2158  -72.6442 C.3       11 UNK        -0.0857 
     47 S47       -75.7412   25.4878  -71.1387 S.3       11 UNK        -0.2512 
     48 C48       -76.9196   26.3830  -70.0746 C.3       11 UNK         0.0225 
     49 N         -76.4263   23.6739  -74.6005 N.am      5 UNK        -0.4615 
     50 C         -75.7139   22.7580  -75.2722 C.2       4 UNK         0.5053 
     51 O         -74.4845   22.7141  -75.2743 O.2       4 UNK        -0.5105 
     52 CA        -76.4988   21.7179  -76.0890 C.3       4 UNK         0.0263 
     53 CB        -76.8188   20.4872  -75.2257 C.3       4 UNK        -0.1981 
     54 N         -77.7382   22.2469  -76.6611 N.am      4 UNK        -0.4224 
     55 C         -77.7904   23.1936  -77.6080 C.2       3 UNK         0.4895 
     56 O         -76.7973   23.7173  -78.1133 O.2       3 UNK        -0.5091 
     57 CA        -79.1924   23.6678  -78.0254 C.3       3 UNK         0.0250 
     58 CB        -79.7896   22.7228  -79.0805 C.3       3 UNK        -0.1996 
     59 N         -80.1345   23.8202  -76.9078 N.am      3 UNK        -0.4254 
     60 C         -79.9388   24.6188  -75.8499 C.2       2 UNK         0.5004 
     61 O         -78.8933   25.2373  -75.6363 O.2       2 UNK        -0.5226 
     62 CA        -81.0832   24.7562  -74.8461 C.3       2 UNK         0.0269 
     63 CB        -80.8356   23.8781  -73.6062 C.3       2 UNK        -0.1926 
     64 N         -81.1341   26.1649  -74.4716 N.am      2 UNK        -0.4687 
     65 C         -82.1926   26.8117  -73.9767 C.2       1 UNK         0.5165 
     66 O         -83.2541   26.2561  -73.6793 O.2       1 UNK        -0.5079 
     67 H67       -86.2871   29.2887  -74.6564 H         1 UNK         0.0900 
     68 H68       -85.5575   30.1542  -73.3026 H         1 UNK         0.0900 
     69 H69       -85.5389   30.8670  -74.9166 H         1 UNK         0.0900 
     70 H70       -83.5816   29.2757  -72.7199 H         1 UNK         0.2959 
     71 H71       -81.5075   28.7176  -74.6553 H         1 UNK         0.1079 
     72 H72       -80.1611   28.0662  -72.6351 H         1 UNK         0.0837 
     73 H73       -81.5768   28.2591  -71.6248 H         1 UNK         0.0837 
     74 H74       -79.8491   31.4449  -70.3960 H         1 UNK         0.0685 
     75 H75       -80.5587   29.9002  -70.0098 H         1 UNK         0.0685 
     76 H76       -79.2271   27.8231  -70.2153 H         1 UNK         0.1434 
     77 H77       -74.9896   28.2176  -70.7169 H         1 UNK         0.1329 
     78 H78       -77.5341   31.6194  -71.2690 H         1 UNK         0.1335 
     79 H79       -74.7770   31.5778  -70.5199 H         1 UNK         0.0680 
     80 H80       -73.9961   30.2459  -71.3292 H         1 UNK         0.0680 
     81 H81       -75.5822   29.5496  -73.6814 H         1 UNK         0.1032 
     82 H82       -75.9159   30.7617  -74.8605 H         1 UNK         0.1032 
     83 H83       -74.2101   29.4529  -75.7739 H         1 UNK         0.0461 
     84 H84       -74.6683   32.4725  -75.6192 H         1 UNK         0.3453 
     85 H85       -73.2442   33.0403  -76.4531 H         1 UNK         0.3453 
     86 H86       -73.2655   28.0968  -74.4005 H         1 UNK         0.2984 
     87 H87       -70.2701   28.3260  -72.6877 H         1 UNK         0.0554 
     88 H88       -71.7756   28.6811  -70.6948 H         1 UNK         0.0847 
     89 H89       -71.2384   27.0167  -70.8384 H         1 UNK         0.0847 
     90 H90       -72.8741   27.4593  -71.3229 H         1 UNK         0.0847 
     91 H91       -72.0453   26.1267  -73.1607 H         1 UNK         0.3141 
     92 H92       -70.1948   24.9782  -75.8605 H         1 UNK         0.0743 
     93 H93       -72.4547   24.3151  -73.8926 H         1 UNK         0.0784 
     94 H94       -71.5228   23.1807  -74.8513 H         1 UNK         0.0784 
     95 H95       -70.7330   24.0899  -73.5765 H         1 UNK         0.0784 
     96 H96       -73.1237   25.5931  -76.0066 H         1 UNK         0.3213 
     97 H97       -73.1283   25.8637  -79.4146 H         1 UNK         0.0855 
     98 H98       -73.8458   23.0890  -78.3197 H         1 UNK         0.0814 
     99 H99       -72.7670   23.4038  -79.6735 H         1 UNK         0.0814 
    100 H100      -74.4716   23.8036  -79.8048 H         1 UNK         0.0814 
    101 H101      -75.2210   24.9877  -77.6223 H         1 UNK         0.3105 
    102 H102      -75.9317   28.2079  -76.2684 H         1 UNK         0.0547 
    103 H103      -77.1688   28.1383  -78.4139 H         1 UNK         0.0837 
    104 H104      -77.4810   26.4225  -78.2034 H         1 UNK         0.0837 
    105 H105      -78.1862   27.5929  -77.0899 H         1 UNK         0.0837 
    106 H106      -77.1841   25.7693  -75.7521 H         1 UNK         0.3020 
    107 H107      -74.8973   24.3693  -73.4056 H         1 UNK         0.1245 
    108 H108      -77.4649   24.4462  -72.4020 H         1 UNK         0.0781 
    109 H109      -77.3074   26.1121  -72.8835 H         1 UNK         0.0781 
    110 H110      -76.5613   26.3345  -69.0456 H         1 UNK         0.0836 
    111 H111      -77.8775   25.8605  -70.0910 H         1 UNK         0.0836 
    112 H112      -77.4309   23.6893  -74.7057 H         1 UNK         0.3022 
    113 H113      -75.8586   21.3995  -76.9148 H         1 UNK         0.0747 
    114 H114      -77.3003   19.7047  -75.8126 H         1 UNK         0.0793 
    115 H115      -75.9076   20.0592  -74.8050 H         1 UNK         0.0793 
    116 H116      -77.4765   20.7365  -74.3921 H         1 UNK         0.0793 
    117 H117      -78.6066   21.8775  -76.3023 H         1 UNK         0.3047 
    118 H118      -79.0765   24.6513  -78.4845 H         1 UNK         0.0822 
    119 H119      -80.7306   23.1090  -79.4725 H         1 UNK         0.0807 
    120 H120      -79.9772   21.7278  -78.6751 H         1 UNK         0.0807 
    121 H121      -79.1124   22.6070  -79.9282 H         1 UNK         0.0807 
    122 H122      -81.0171   23.3367  -76.9965 H         1 UNK         0.2946 
    123 H123      -82.0240   24.4718  -75.3232 H         1 UNK         0.1144 
    124 H124      -79.9113   24.1522  -73.0964 H         1 UNK         0.0793 
    125 H125      -80.7604   22.8251  -73.8802 H         1 UNK         0.0793 
    126 H126      -81.6506   23.9670  -72.8877 H         1 UNK         0.0793 
    127 H127      -80.2884   26.6733  -74.7008 H         1 UNK         0.2896 
@<TRIPOS>BOND
     1    1    2 1    
     2    1   67 1    
     3    1   68 1    
     4    1   69 1    
     5    2    3 2    
     6    2    4 am   BACKBONE|DICT|INTERRES
     7    4    5 1    
     8    4   70 1    
     9    5    6 1    
    10    5   65 1    
    11    5   71 1    
    12    6    7 1    
    13    6   72 1    
    14    6   73 1    
    15    7    8 1    
    16    8    9 1    
    17    8   74 1    
    18    8   75 1    
    19    9   10 ar   
    20    9   14 ar   
    21   10   11 ar   
    22   10   76 1    
    23   11   12 ar   
    24   11   48 1    
    25   12   13 ar   
    26   12   77 1    
    27   13   14 ar   
    28   13   15 1    
    29   14   78 1    
    30   15   16 1    
    31   15   79 1    
    32   15   80 1    
    33   16   17 1    
    34   17   18 1    
    35   17   81 1    
    36   17   82 1    
    37   18   19 1    
    38   18   22 1    
    39   18   83 1    
    40   19   20 am   BACKBONE|DICT|INTERRES
    41   19   21 2    
    42   20   84 1    
    43   20   85 1    
    44   22   23 am   BACKBONE|DICT|INTERRES
    45   22   86 1    
    46   23   24 2    
    47   23   25 1    
    48   25   26 1    
    49   25   27 1    
    50   25   87 1    
    51   26   88 1    
    52   26   89 1    
    53   26   90 1    
    54   27   28 am   BACKBONE|DICT|INTERRES
    55   27   91 1    
    56   28   29 2    
    57   28   30 1    
    58   30   31 1    
    59   30   32 1    
    60   30   92 1    
    61   31   93 1    
    62   31   94 1    
    63   31   95 1    
    64   32   33 am   BACKBONE|DICT|INTERRES
    65   32   96 1    
    66   33   34 2    
    67   33   35 1    
    68   35   36 1    
    69   35   37 1    
    70   35   97 1    
    71   36   98 1    
    72   36   99 1    
    73   36  100 1    
    74   37   38 am   BACKBONE|DICT|INTERRES
    75   37  101 1    
    76   38   39 2    
    77   38   40 1    
    78   40   41 1    
    79   40   42 1    
    80   40  102 1    
    81   41  103 1    
    82   41  104 1    
    83   41  105 1    
    84   42   43 am   BACKBONE|DICT|INTERRES
    85   42  106 1    
    86   43   44 2    
    87   43   45 1    
    88   45   46 1    
    89   45   49 1    
    90   45  107 1    
    91   46   47 1    
    92   46  108 1    
    93   46  109 1    
    94   47   48 1    
    95   48  110 1    
    96   48  111 1    
    97   49   50 am   BACKBONE|DICT|INTERRES
    98   49  112 1    
    99   50   51 2    
   100   50   52 1    
   101   52   53 1    
   102   52   54 1    
   103   52  113 1    
   104   53  114 1    
   105   53  115 1    
   106   53  116 1    
   107   54   55 am   BACKBONE|DICT|INTERRES
   108   54  117 1    
   109   55   56 2    
   110   55   57 1    
   111   57   58 1    
   112   57   59 1    
   113   57  118 1    
   114   58  119 1    
   115   58  120 1    
   116   58  121 1    
   117   59   60 am   BACKBONE|DICT|INTERRES
   118   59  122 1    
   119   60   61 2    
   120   60   62 1    
   121   62   63 1    
   122   62   64 1    
   123   62  123 1    
   124   63  124 1    
   125   63  125 1    
   126   63  126 1    
   127   64   65 am   BACKBONE|DICT|INTERRES
   128   64  127 1    
   129   65   66 2    
@<TRIPOS>SUBSTRUCTURE
     1 UNK         1 GROUP             0       ****    0 ROOT    
