@<TRIPOS>MOLECULE
3R135
127   129    1
SMALL
USER_CHARGES


@<TRIPOS>ATOM
      1 CA        -82.9501   26.7315  -70.2729 C.3       0 UNK        -0.1998 
      2 C         -82.9038   26.7722  -71.7929 C.2       0 UNK         0.4909 
      3 O         -83.9283   26.5642  -72.4441 O.2       0 UNK        -0.5240 
      4 N         -81.7233   27.0420  -72.3628 N.am      1 UNK        -0.4739 
      5 CA        -81.4805   27.0601  -73.8049 C.3       1 UNK         0.0864 
      6 C6        -80.2715   27.9487  -74.1880 C.3       11 UNK        -0.0881 
      7 S7        -80.6313   29.7344  -74.0575 S.3       11 UNK        -0.2682 
      8 C8        -80.2613   30.1284  -72.3160 C.3       11 UNK         0.0289 
      9 C9        -78.8314   29.7837  -71.9284 C.ar      11 UNK        -0.0687 
     10 C10       -78.5685   28.6545  -71.1493 C.ar      11 UNK        -0.0823 
     11 C11       -77.2587   28.3192  -70.8001 C.ar      11 UNK        -0.0830 
     12 C12       -76.2043   29.1355  -71.2238 C.ar      11 UNK        -0.1021 
     13 C13       -76.4553   30.2798  -71.9904 C.ar      11 UNK        -0.0753 
     14 C14       -77.7725   30.5982  -72.3369 C.ar      11 UNK        -0.0933 
     15 C15       -75.3125   31.1912  -72.4173 C.3       11 UNK         0.0166 
     16 S16       -75.1798   31.3163  -74.2289 S.3       11 UNK        -0.2615 
     17 C17       -73.6610   32.3124  -74.4114 C.3       11 UNK        -0.0865 
     18 CA        -72.4653   31.4877  -74.9585 C.3       10 UNK         0.0862 
     19 C         -71.2418   32.4096  -75.2388 C.2       10 UNK         0.5551 
     20 N         -70.1117   32.2437  -74.5621 N.am      10 UNK        -0.7319 
     21 O         -71.3222   33.2928  -76.0890 O.2       10 UNK        -0.5018 
     22 N         -72.1840   30.3180  -74.1095 N.am      10 UNK        -0.4509 
     23 C         -71.4912   29.2361  -74.4837 C.2       10 UNK         0.4899 
     24 O         -70.9504   29.1189  -75.5842 O.2       10 UNK        -0.4839 
     25 CA        -71.3590   28.1007  -73.4527 C.3       9 UNK         0.0222 
     26 CB        -72.1782   28.3166  -72.1613 C.3       9 UNK        -0.1966 
     27 N         -71.7769   26.8440  -74.0699 N.am      9 UNK        -0.4218 
     28 C         -70.9515   25.8900  -74.5180 C.2       9 UNK         0.5020 
     29 O         -69.7232   25.9384  -74.4275 O.2       9 UNK        -0.5274 
     30 CA        -71.6041   24.6543  -75.1589 C.3       8 UNK         0.0270 
     31 CB        -72.1408   23.7056  -74.0743 C.3       8 UNK        -0.1976 
     32 N         -72.6753   24.9869  -76.1018 N.am      8 UNK        -0.4313 
     33 C         -72.4828   25.5565  -77.3007 C.2       8 UNK         0.5041 
     34 O         -71.3745   25.8538  -77.7485 O.2       8 UNK        -0.5577 
     35 CA        -73.7313   25.8217  -78.1602 C.3       7 UNK         0.0284 
     36 CB        -74.1798   24.5410  -78.8833 C.3       7 UNK        -0.1958 
     37 N         -74.8458   26.3605  -77.3813 N.am      7 UNK        -0.4454 
     38 C         -74.8918   27.6027  -76.8804 C.2       7 UNK         0.5089 
     39 O         -74.0409   28.4634  -77.1018 O.2       7 UNK        -0.5125 
     40 CA        -76.0803   27.9370  -75.9611 C.3       6 UNK         0.0408 
     41 CB        -77.2772   28.4601  -76.7693 C.3       6 UNK        -0.1791 
     42 N         -76.4935   26.8074  -75.1248 N.am      6 UNK        -0.4762 
     43 C         -75.7293   26.2771  -74.1584 C.2       6 UNK         0.5007 
     44 O         -74.6084   26.6952  -73.8693 O.2       6 UNK        -0.5032 
     45 CA        -76.2686   25.0178  -73.4525 C.3       5 UNK         0.0783 
     46 C46       -77.1255   25.3527  -72.2075 C.3       11 UNK        -0.0857 
     47 S47       -76.0572   25.7921  -70.7903 S.3       11 UNK        -0.2512 
     48 C48       -76.9998   27.0932  -69.9337 C.3       11 UNK         0.0225 
     49 N         -76.9431   24.1124  -74.3910 N.am      5 UNK        -0.4615 
     50 C         -76.2726   23.4163  -75.3219 C.2       4 UNK         0.5053 
     51 O         -75.0565   23.5022  -75.4878 O.2       4 UNK        -0.5105 
     52 CA        -77.0768   22.4867  -76.2399 C.3       4 UNK         0.0263 
     53 CB        -77.4761   21.2025  -75.4960 C.3       4 UNK        -0.1981 
     54 N         -78.2671   23.0995  -76.8260 N.am      4 UNK        -0.4224 
     55 C         -78.3186   24.2226  -77.5519 C.2       3 UNK         0.4895 
     56 O         -77.3503   24.9552  -77.7504 O.2       3 UNK        -0.5091 
     57 CA        -79.6824   24.6020  -78.1602 C.3       3 UNK         0.0250 
     58 CB        -79.9505   23.8082  -79.4532 C.3       3 UNK        -0.1996 
     59 N         -80.8123   24.5105  -77.2231 N.am      3 UNK        -0.4254 
     60 C         -81.3134   23.4366  -76.5909 C.2       2 UNK         0.5004 
     61 O         -80.9344   22.2822  -76.7975 O.2       2 UNK        -0.5226 
     62 CA        -82.3848   23.7061  -75.5138 C.3       2 UNK         0.0269 
     63 CB        -82.3715   22.6398  -74.3973 C.3       2 UNK        -0.1926 
     64 N         -82.3138   25.0563  -74.9314 N.am      2 UNK        -0.4687 
     65 C         -81.2775   25.6123  -74.2831 C.2       1 UNK         0.5165 
     66 O         -80.1999   25.0480  -74.0720 O.2       1 UNK        -0.5079 
     67 H67       -83.2681   25.7459  -69.9340 H         1 UNK         0.0900 
     68 H68       -83.6630   27.4665  -69.9002 H         1 UNK         0.0900 
     69 H69       -81.9787   26.9463  -69.8280 H         1 UNK         0.0900 
     70 H70       -80.9065   27.1509  -71.7835 H         1 UNK         0.2959 
     71 H71       -82.3609   27.4678  -74.3080 H         1 UNK         0.1079 
     72 H72       -79.3821   27.6897  -73.6136 H         1 UNK         0.0837 
     73 H73       -80.0020   27.7734  -75.2310 H         1 UNK         0.0837 
     74 H74       -80.4274   31.1951  -72.1589 H         1 UNK         0.0685 
     75 H75       -80.9747   29.6182  -71.6681 H         1 UNK         0.0685 
     76 H76       -79.3854   28.0347  -70.8104 H         1 UNK         0.1434 
     77 H77       -75.1913   28.8802  -70.9452 H         1 UNK         0.1329 
     78 H78       -77.9728   31.4786  -72.9324 H         1 UNK         0.1335 
     79 H79       -75.4747   32.1857  -71.9993 H         1 UNK         0.0680 
     80 H80       -74.3661   30.8328  -72.0109 H         1 UNK         0.0680 
     81 H81       -73.4034   32.7783  -73.4584 H         1 UNK         0.1032 
     82 H82       -73.8945   33.1347  -75.0906 H         1 UNK         0.1032 
     83 H83       -72.7654   31.0985  -75.9338 H         1 UNK         0.0461 
     84 H84       -70.0353   31.5169  -73.8692 H         1 UNK         0.3453 
     85 H85       -69.3261   32.8450  -74.7545 H         1 UNK         0.3453 
     86 H86       -72.5912   30.3332  -73.1880 H         1 UNK         0.2984 
     87 H87       -70.3059   28.0519  -73.1696 H         1 UNK         0.0554 
     88 H88       -72.0684   27.4689  -71.4847 H         1 UNK         0.0847 
     89 H89       -73.2432   28.4298  -72.3672 H         1 UNK         0.0847 
     90 H90       -71.8419   29.1993  -71.6160 H         1 UNK         0.0847 
     91 H91       -72.7822   26.7226  -74.1830 H         1 UNK         0.3141 
     92 H92       -70.8281   24.1220  -75.7132 H         1 UNK         0.0743 
     93 H93       -72.9456   24.1643  -73.4990 H         1 UNK         0.0784 
     94 H94       -72.5243   22.7826  -74.5095 H         1 UNK         0.0784 
     95 H95       -71.3532   23.4296  -73.3719 H         1 UNK         0.0784 
     96 H96       -73.6152   24.6931  -75.8460 H         1 UNK         0.3213 
     97 H97       -73.4611   26.5599  -78.9186 H         1 UNK         0.0855 
     98 H98       -73.3710   24.1321  -79.4903 H         1 UNK         0.0814 
     99 H99       -75.0198   24.7369  -79.5502 H         1 UNK         0.0814 
    100 H100      -74.4866   23.7649  -78.1815 H         1 UNK         0.0814 
    101 H101      -75.6413   25.7466  -77.2284 H         1 UNK         0.3105 
    102 H102      -75.7548   28.7333  -75.2915 H         1 UNK         0.0547 
    103 H103      -76.9744   29.2772  -77.4255 H         1 UNK         0.0837 
    104 H104      -77.7171   27.6839  -77.3961 H         1 UNK         0.0837 
    105 H105      -78.0532   28.8521  -76.1128 H         1 UNK         0.0837 
    106 H106      -77.3727   26.3638  -75.3459 H         1 UNK         0.3020 
    107 H107      -75.3900   24.4730  -73.0972 H         1 UNK         0.1245 
    108 H108      -77.7136   24.4836  -71.9087 H         1 UNK         0.0781 
    109 H109      -77.8460   26.1426  -72.4225 H         1 UNK         0.0781 
    110 H110      -76.4438   27.3999  -69.0467 H         1 UNK         0.0836 
    111 H111      -77.9352   26.6650  -69.5702 H         1 UNK         0.0836 
    112 H112      -77.9496   24.0313  -74.3237 H         1 UNK         0.3022 
    113 H113      -76.4234   22.2075  -77.0690 H         1 UNK         0.0747 
    114 H114      -77.9393   20.4822  -76.1706 H         1 UNK         0.0793 
    115 H115      -76.6037   20.7175  -75.0553 H         1 UNK         0.0793 
    116 H116      -78.1815   21.4051  -74.6890 H         1 UNK         0.0793 
    117 H117      -79.1425   22.5885  -76.7275 H         1 UNK         0.3047 
    118 H118      -79.6132   25.6559  -78.4349 H         1 UNK         0.0822 
    119 H119      -80.8763   24.1298  -79.9302 H         1 UNK         0.0807 
    120 H120      -80.0234   22.7358  -79.2700 H         1 UNK         0.0807 
    121 H121      -79.1457   23.9583  -80.1741 H         1 UNK         0.0807 
    122 H122      -81.2081   25.4009  -76.9578 H         1 UNK         0.2946 
    123 H123      -83.3458   23.6373  -76.0265 H         1 UNK         0.1144 
    124 H124      -82.5692   21.6456  -74.8003 H         1 UNK         0.0793 
    125 H125      -83.1372   22.8407  -73.6479 H         1 UNK         0.0793 
    126 H126      -81.4076   22.5979  -73.8889 H         1 UNK         0.0793 
    127 H127      -83.1592   25.6052  -75.0198 H         1 UNK         0.2896 
@<TRIPOS>BOND
     1    1    2 1    
     2    1   67 1    
     3    1   68 1    
     4    1   69 1    
     5    2    3 2    
     6    2    4 am   BACKBONE|DICT|INTERRES
     7    4    5 1    
     8    4   70 1    
     9    5    6 1    
    10    5   65 1    
    11    5   71 1    
    12    6    7 1    
    13    6   72 1    
    14    6   73 1    
    15    7    8 1    
    16    8    9 1    
    17    8   74 1    
    18    8   75 1    
    19    9   10 ar   
    20    9   14 ar   
    21   10   11 ar   
    22   10   76 1    
    23   11   12 ar   
    24   11   48 1    
    25   12   13 ar   
    26   12   77 1    
    27   13   14 ar   
    28   13   15 1    
    29   14   78 1    
    30   15   16 1    
    31   15   79 1    
    32   15   80 1    
    33   16   17 1    
    34   17   18 1    
    35   17   81 1    
    36   17   82 1    
    37   18   19 1    
    38   18   22 1    
    39   18   83 1    
    40   19   20 am   BACKBONE|DICT|INTERRES
    41   19   21 2    
    42   20   84 1    
    43   20   85 1    
    44   22   23 am   BACKBONE|DICT|INTERRES
    45   22   86 1    
    46   23   24 2    
    47   23   25 1    
    48   25   26 1    
    49   25   27 1    
    50   25   87 1    
    51   26   88 1    
    52   26   89 1    
    53   26   90 1    
    54   27   28 am   BACKBONE|DICT|INTERRES
    55   27   91 1    
    56   28   29 2    
    57   28   30 1    
    58   30   31 1    
    59   30   32 1    
    60   30   92 1    
    61   31   93 1    
    62   31   94 1    
    63   31   95 1    
    64   32   33 am   BACKBONE|DICT|INTERRES
    65   32   96 1    
    66   33   34 2    
    67   33   35 1    
    68   35   36 1    
    69   35   37 1    
    70   35   97 1    
    71   36   98 1    
    72   36   99 1    
    73   36  100 1    
    74   37   38 am   BACKBONE|DICT|INTERRES
    75   37  101 1    
    76   38   39 2    
    77   38   40 1    
    78   40   41 1    
    79   40   42 1    
    80   40  102 1    
    81   41  103 1    
    82   41  104 1    
    83   41  105 1    
    84   42   43 am   BACKBONE|DICT|INTERRES
    85   42  106 1    
    86   43   44 2    
    87   43   45 1    
    88   45   46 1    
    89   45   49 1    
    90   45  107 1    
    91   46   47 1    
    92   46  108 1    
    93   46  109 1    
    94   47   48 1    
    95   48  110 1    
    96   48  111 1    
    97   49   50 am   BACKBONE|DICT|INTERRES
    98   49  112 1    
    99   50   51 2    
   100   50   52 1    
   101   52   53 1    
   102   52   54 1    
   103   52  113 1    
   104   53  114 1    
   105   53  115 1    
   106   53  116 1    
   107   54   55 am   BACKBONE|DICT|INTERRES
   108   54  117 1    
   109   55   56 2    
   110   55   57 1    
   111   57   58 1    
   112   57   59 1    
   113   57  118 1    
   114   58  119 1    
   115   58  120 1    
   116   58  121 1    
   117   59   60 am   BACKBONE|DICT|INTERRES
   118   59  122 1    
   119   60   61 2    
   120   60   62 1    
   121   62   63 1    
   122   62   64 1    
   123   62  123 1    
   124   63  124 1    
   125   63  125 1    
   126   63  126 1    
   127   64   65 am   BACKBONE|DICT|INTERRES
   128   64  127 1    
   129   65   66 2    
@<TRIPOS>SUBSTRUCTURE
     1 UNK         1 GROUP             0       ****    0 ROOT    
