@<TRIPOS>MOLECULE
3R135
127   129    1
SMALL
USER_CHARGES


@<TRIPOS>ATOM
      1 CA        -78.9577   23.7164  -67.9678 C.3       0 UNK        -0.1998 
      2 C         -80.0508   24.1613  -68.9281 C.2       0 UNK         0.4909 
      3 O         -81.0964   23.5149  -69.0074 O.2       0 UNK        -0.5240 
      4 N         -79.8216   25.2649  -69.6508 N.am      1 UNK        -0.4739 
      5 CA        -80.7269   25.7898  -70.6775 C.3       1 UNK         0.0864 
      6 C6        -80.3990   27.2695  -70.9964 C.3       11 UNK        -0.0881 
      7 S7        -81.7940   28.1432  -71.7840 S.3       11 UNK        -0.2682 
      8 C8        -81.2309   29.8726  -71.7006 C.3       11 UNK         0.0289 
      9 C9        -79.9293   30.0858  -72.4601 C.ar      11 UNK        -0.0687 
     10 C10       -79.9205   30.0930  -73.8580 C.ar      11 UNK        -0.0823 
     11 C11       -78.7298   30.2771  -74.5694 C.ar      11 UNK        -0.0830 
     12 C12       -77.5345   30.4476  -73.8531 C.ar      11 UNK        -0.1021 
     13 C13       -77.5335   30.4577  -72.4546 C.ar      11 UNK        -0.0753 
     14 C14       -78.7334   30.2763  -71.7640 C.ar      11 UNK        -0.0933 
     15 C15       -76.2417   30.6847  -71.6849 C.3       11 UNK         0.0166 
     16 S16       -75.5407   29.1211  -71.0784 S.3       11 UNK        -0.2615 
     17 C17       -74.0359   29.7357  -70.2460 C.3       11 UNK        -0.0865 
     18 CA        -72.8109   29.8455  -71.1967 C.3       10 UNK         0.0862 
     19 C         -71.5955   30.5253  -70.5016 C.2       10 UNK         0.5551 
     20 N         -70.3780   30.0131  -70.6394 N.am      10 UNK        -0.7319 
     21 O         -71.7536   31.5469  -69.8377 O.2       10 UNK        -0.5018 
     22 N         -72.4746   28.5466  -71.8073 N.am      10 UNK        -0.4509 
     23 C         -72.5998   28.2484  -73.1045 C.2       10 UNK         0.4899 
     24 O         -73.0007   29.0414  -73.9608 O.2       10 UNK        -0.4839 
     25 CA        -72.2236   26.8083  -73.4937 C.3       9 UNK         0.0222 
     26 CB        -73.2265   25.7975  -72.9089 C.3       9 UNK        -0.1966 
     27 N         -72.2159   26.6603  -74.9461 N.am      9 UNK        -0.4218 
     28 C         -71.1607   26.8543  -75.7455 C.2       9 UNK         0.5020 
     29 O         -70.0213   27.0841  -75.3333 O.2       9 UNK        -0.5274 
     30 CA        -71.4388   26.7924  -77.2615 C.3       8 UNK         0.0270 
     31 CB        -70.1611   26.6307  -78.1129 C.3       8 UNK        -0.1976 
     32 N         -72.4464   25.7843  -77.6130 N.am      8 UNK        -0.4313 
     33 C         -72.3703   24.4527  -77.4642 C.2       8 UNK         0.5041 
     34 O         -71.3695   23.8608  -77.0574 O.2       8 UNK        -0.5577 
     35 CA        -73.6300   23.6299  -77.8058 C.3       7 UNK         0.0284 
     36 CB        -74.2516   23.0495  -76.5243 C.3       7 UNK        -0.1958 
     37 N         -74.6583   24.3888  -78.5240 N.am      7 UNK        -0.4454 
     38 C         -74.5781   24.7789  -79.8038 C.2       7 UNK         0.5089 
     39 O         -73.6491   24.4840  -80.5555 O.2       7 UNK        -0.5125 
     40 CA        -75.7088   25.6874  -80.3154 C.3       6 UNK         0.0408 
     41 CB        -76.8897   24.8478  -80.8245 C.3       6 UNK        -0.1791 
     42 N         -76.1699   26.6264  -79.2863 N.am      6 UNK        -0.4762 
     43 C         -75.4702   27.6961  -78.8762 C.2       6 UNK         0.5007 
     44 O         -74.3830   28.0193  -79.3545 O.2       6 UNK        -0.5032 
     45 CA        -76.0509   28.5205  -77.7094 C.3       5 UNK         0.0783 
     46 C46       -76.9978   29.6322  -78.2237 C.3       11 UNK        -0.0857 
     47 S47       -77.3062   30.9004  -76.9498 S.3       11 UNK        -0.2512 
     48 C48       -78.7926   30.2582  -76.0998 C.3       11 UNK         0.0225 
     49 N         -76.6977   27.6689  -76.7065 N.am      5 UNK        -0.4615 
     50 C         -76.0500   26.8143  -75.9068 C.2       4 UNK         0.5053 
     51 O         -74.8325   26.6444  -75.9316 O.2       4 UNK        -0.5105 
     52 CA        -76.9112   25.9723  -74.9531 C.3       4 UNK         0.0263 
     53 CB        -77.2095   26.7508  -73.6628 C.3       4 UNK        -0.1981 
     54 N         -78.1706   25.5104  -75.5438 N.am      4 UNK        -0.4224 
     55 C         -78.2939   24.7496  -76.6399 C.2       3 UNK         0.4895 
     56 O         -77.3321   24.3915  -77.3224 O.2       3 UNK        -0.5091 
     57 CA        -79.7246   24.3320  -77.0483 C.3       3 UNK         0.0250 
     58 CB        -79.7314   23.1945  -78.0866 C.3       3 UNK        -0.1996 
     59 N         -80.5628   23.9292  -75.9128 N.am      3 UNK        -0.4254 
     60 C         -81.1503   24.7580  -75.0401 C.2       2 UNK         0.5004 
     61 O         -81.0181   25.9829  -75.0877 O.2       2 UNK        -0.5226 
     62 CA        -82.0208   24.1341  -73.9293 C.3       2 UNK         0.0269 
     63 CB        -81.8572   22.6039  -73.7721 C.3       2 UNK        -0.1926 
     64 N         -81.8255   24.8159  -72.6435 N.am      2 UNK        -0.4687 
     65 C         -80.6832   24.9093  -71.9464 C.2       1 UNK         0.5165 
     66 O         -79.6269   24.3616  -72.2748 O.2       1 UNK        -0.5079 
     67 H67       -78.6148   22.7154  -68.2284 H         1 UNK         0.0900 
     68 H68       -79.3411   23.6911  -66.9481 H         1 UNK         0.0900 
     69 H69       -78.0978   24.3857  -67.9901 H         1 UNK         0.0900 
     70 H70       -78.9304   25.7329  -69.5705 H         1 UNK         0.2959 
     71 H71       -81.7378   25.7427  -70.2650 H         1 UNK         0.1079 
     72 H72       -79.5119   27.3515  -71.6279 H         1 UNK         0.0837 
     73 H73       -80.1636   27.8042  -70.0745 H         1 UNK         0.0837 
     74 H74       -81.1238   30.1654  -70.6550 H         1 UNK         0.0685 
     75 H75       -82.0045   30.5170  -72.1205 H         1 UNK         0.0685 
     76 H76       -80.8488   29.9424  -74.3927 H         1 UNK         0.1434 
     77 H77       -76.5946   30.5735  -74.3710 H         1 UNK         0.1329 
     78 H78       -78.7318   30.2762  -70.6825 H         1 UNK         0.1335 
     79 H79       -75.5077   31.1863  -72.3176 H         1 UNK         0.0680 
     80 H80       -76.4304   31.3505  -70.8413 H         1 UNK         0.0680 
     81 H81       -74.2628   30.7011  -69.7894 H         1 UNK         0.1032 
     82 H82       -73.8080   29.0628  -69.4177 H         1 UNK         0.1032 
     83 H83       -73.0842   30.5496  -71.9842 H         1 UNK         0.0461 
     84 H84       -70.2244   29.1989  -71.2123 H         1 UNK         0.3453 
     85 H85       -69.5986   30.4669  -70.1889 H         1 UNK         0.3453 
     86 H86       -72.1351   27.8403  -71.1703 H         1 UNK         0.2984 
     87 H87       -71.2312   26.5883  -73.0950 H         1 UNK         0.0554 
     88 H88       -73.2340   25.8262  -71.8189 H         1 UNK         0.0847 
     89 H89       -72.9760   24.7778  -73.2020 H         1 UNK         0.0847 
     90 H90       -74.2430   25.9989  -73.2456 H         1 UNK         0.0847 
     91 H91       -73.1349   26.5734  -75.3800 H         1 UNK         0.3141 
     92 H92       -71.8821   27.7552  -77.5203 H         1 UNK         0.0743 
     93 H93       -69.4791   27.4670  -77.9554 H         1 UNK         0.0784 
     94 H94       -69.6184   25.7189  -77.8620 H         1 UNK         0.0784 
     95 H95       -70.3955   26.6006  -79.1770 H         1 UNK         0.0784 
     96 H96       -73.3366   26.1551  -77.9175 H         1 UNK         0.3213 
     97 H97       -73.3140   22.7998  -78.4411 H         1 UNK         0.0855 
     98 H98       -73.5385   22.4154  -75.9959 H         1 UNK         0.0814 
     99 H99       -75.1268   22.4387  -76.7467 H         1 UNK         0.0814 
    100 H100      -74.5585   23.8369  -75.8356 H         1 UNK         0.0814 
    101 H101      -75.5047   24.6117  -78.0064 H         1 UNK         0.3105 
    102 H102      -75.3208   26.2659  -81.1567 H         1 UNK         0.0547 
    103 H103      -76.5803   24.2064  -81.6508 H         1 UNK         0.0837 
    104 H104      -77.2872   24.1989  -80.0452 H         1 UNK         0.0837 
    105 H105      -77.7014   25.4772  -81.1894 H         1 UNK         0.0837 
    106 H106      -77.0265   26.3912  -78.8055 H         1 UNK         0.3020 
    107 H107      -75.1965   29.0011  -77.2252 H         1 UNK         0.1245 
    108 H108      -77.9414   29.2196  -78.5855 H         1 UNK         0.0781 
    109 H109      -76.5513   30.1500  -79.0753 H         1 UNK         0.0781 
    110 H110      -79.0003   29.2372  -76.4185 H         1 UNK         0.0836 
    111 H111      -79.6442   30.8548  -76.4307 H         1 UNK         0.0836 
    112 H112      -77.6992   27.7400  -76.6212 H         1 UNK         0.3022 
    113 H113      -76.3295   25.0876  -74.6888 H         1 UNK         0.0747 
    114 H114      -76.3076   27.2131  -73.2607 H         1 UNK         0.0793 
    115 H115      -77.9345   27.5477  -73.8280 H         1 UNK         0.0793 
    116 H116      -77.6068   26.0944  -72.8892 H         1 UNK         0.0793 
    117 H117      -79.0277   25.7776  -75.0699 H         1 UNK         0.3047 
    118 H118      -80.1820   25.2065  -77.5158 H         1 UNK         0.0822 
    119 H119      -80.7477   22.9118  -78.3617 H         1 UNK         0.0807 
    120 H120      -79.2236   22.3043  -77.7130 H         1 UNK         0.0807 
    121 H121      -79.2287   23.4969  -79.0046 H         1 UNK         0.0807 
    122 H122      -80.6841   22.9357  -75.7786 H         1 UNK         0.2946 
    123 H123      -83.0542   24.3262  -74.2230 H         1 UNK         0.1144 
    124 H124      -82.4733   22.2277  -72.9552 H         1 UNK         0.0793 
    125 H125      -80.8255   22.3189  -73.5621 H         1 UNK         0.0793 
    126 H126      -82.1733   22.0748  -74.6720 H         1 UNK         0.0793 
    127 H127      -82.6167   25.3558  -72.3202 H         1 UNK         0.2896 
@<TRIPOS>BOND
     1    1    2 1    
     2    1   67 1    
     3    1   68 1    
     4    1   69 1    
     5    2    3 2    
     6    2    4 am   BACKBONE|DICT|INTERRES
     7    4    5 1    
     8    4   70 1    
     9    5    6 1    
    10    5   65 1    
    11    5   71 1    
    12    6    7 1    
    13    6   72 1    
    14    6   73 1    
    15    7    8 1    
    16    8    9 1    
    17    8   74 1    
    18    8   75 1    
    19    9   10 ar   
    20    9   14 ar   
    21   10   11 ar   
    22   10   76 1    
    23   11   12 ar   
    24   11   48 1    
    25   12   13 ar   
    26   12   77 1    
    27   13   14 ar   
    28   13   15 1    
    29   14   78 1    
    30   15   16 1    
    31   15   79 1    
    32   15   80 1    
    33   16   17 1    
    34   17   18 1    
    35   17   81 1    
    36   17   82 1    
    37   18   19 1    
    38   18   22 1    
    39   18   83 1    
    40   19   20 am   BACKBONE|DICT|INTERRES
    41   19   21 2    
    42   20   84 1    
    43   20   85 1    
    44   22   23 am   BACKBONE|DICT|INTERRES
    45   22   86 1    
    46   23   24 2    
    47   23   25 1    
    48   25   26 1    
    49   25   27 1    
    50   25   87 1    
    51   26   88 1    
    52   26   89 1    
    53   26   90 1    
    54   27   28 am   BACKBONE|DICT|INTERRES
    55   27   91 1    
    56   28   29 2    
    57   28   30 1    
    58   30   31 1    
    59   30   32 1    
    60   30   92 1    
    61   31   93 1    
    62   31   94 1    
    63   31   95 1    
    64   32   33 am   BACKBONE|DICT|INTERRES
    65   32   96 1    
    66   33   34 2    
    67   33   35 1    
    68   35   36 1    
    69   35   37 1    
    70   35   97 1    
    71   36   98 1    
    72   36   99 1    
    73   36  100 1    
    74   37   38 am   BACKBONE|DICT|INTERRES
    75   37  101 1    
    76   38   39 2    
    77   38   40 1    
    78   40   41 1    
    79   40   42 1    
    80   40  102 1    
    81   41  103 1    
    82   41  104 1    
    83   41  105 1    
    84   42   43 am   BACKBONE|DICT|INTERRES
    85   42  106 1    
    86   43   44 2    
    87   43   45 1    
    88   45   46 1    
    89   45   49 1    
    90   45  107 1    
    91   46   47 1    
    92   46  108 1    
    93   46  109 1    
    94   47   48 1    
    95   48  110 1    
    96   48  111 1    
    97   49   50 am   BACKBONE|DICT|INTERRES
    98   49  112 1    
    99   50   51 2    
   100   50   52 1    
   101   52   53 1    
   102   52   54 1    
   103   52  113 1    
   104   53  114 1    
   105   53  115 1    
   106   53  116 1    
   107   54   55 am   BACKBONE|DICT|INTERRES
   108   54  117 1    
   109   55   56 2    
   110   55   57 1    
   111   57   58 1    
   112   57   59 1    
   113   57  118 1    
   114   58  119 1    
   115   58  120 1    
   116   58  121 1    
   117   59   60 am   BACKBONE|DICT|INTERRES
   118   59  122 1    
   119   60   61 2    
   120   60   62 1    
   121   62   63 1    
   122   62   64 1    
   123   62  123 1    
   124   63  124 1    
   125   63  125 1    
   126   63  126 1    
   127   64   65 am   BACKBONE|DICT|INTERRES
   128   64  127 1    
   129   65   66 2    
@<TRIPOS>SUBSTRUCTURE
     1 UNK         1 GROUP             0       ****    0 ROOT    
