@<TRIPOS>MOLECULE
3R135
127   129    1
SMALL
USER_CHARGES


@<TRIPOS>ATOM
      1 CA        -77.5180   23.4072  -68.5938 C.3       0 UNK        -0.1998 
      2 C         -78.7681   23.4435  -69.4604 C.2       0 UNK         0.4909 
      3 O         -79.5636   22.5034  -69.4284 O.2       0 UNK        -0.5240 
      4 N         -78.9519   24.5269  -70.2248 N.am      1 UNK        -0.4739 
      5 CA        -80.0683   24.7164  -71.1590 C.3       1 UNK         0.0864 
      6 C6        -80.1864   26.1885  -71.6343 C.3       11 UNK        -0.0881 
      7 S7        -80.2546   27.3853  -70.2650 S.3       11 UNK        -0.2682 
      8 C8        -80.9701   28.8330  -71.1040 C.3       11 UNK         0.0289 
      9 C9        -79.9994   29.5280  -72.0544 C.ar      11 UNK        -0.0687 
     10 C10       -80.3268   29.6841  -73.4076 C.ar      11 UNK        -0.0823 
     11 C11       -79.5236   30.4627  -74.2489 C.ar      11 UNK        -0.0830 
     12 C12       -78.3788   31.0671  -73.7244 C.ar      11 UNK        -0.1021 
     13 C13       -78.0031   30.8715  -72.3946 C.ar      11 UNK        -0.0753 
     14 C14       -78.8220   30.1039  -71.5608 C.ar      11 UNK        -0.0933 
     15 C15       -76.7596   31.5666  -71.8517 C.3       11 UNK         0.0166 
     16 S16       -75.2745   31.2501  -72.8669 S.3       11 UNK        -0.2615 
     17 C17       -74.6972   29.6624  -72.1881 C.3       11 UNK        -0.0865 
     18 CA        -73.1881   29.4384  -72.4660 C.3       10 UNK         0.0862 
     19 C         -72.6166   28.3007  -71.5840 C.2       10 UNK         0.5551 
     20 N         -71.6305   28.5908  -70.7469 N.am      10 UNK        -0.7319 
     21 O         -73.0896   27.1684  -71.6277 O.2       10 UNK        -0.5018 
     22 N         -72.9334   29.1385  -73.8806 N.am      10 UNK        -0.4509 
     23 C         -71.8065   29.4525  -74.5325 C.2       10 UNK         0.4899 
     24 O         -70.9054   30.1445  -74.0553 O.2       10 UNK        -0.4839 
     25 CA        -71.6685   28.8709  -75.9538 C.3       9 UNK         0.0222 
     26 CB        -70.3007   29.1596  -76.6089 C.3       9 UNK        -0.1966 
     27 N         -71.9879   27.4384  -75.9816 N.am      9 UNK        -0.4218 
     28 C         -71.3571   26.4511  -75.3268 C.2       9 UNK         0.5020 
     29 O         -70.2934   26.5985  -74.7233 O.2       9 UNK        -0.5274 
     30 CA        -72.0168   25.0613  -75.3165 C.3       8 UNK         0.0270 
     31 CB        -72.5157   24.7063  -73.9046 C.3       8 UNK        -0.1976 
     32 N         -73.1424   24.9299  -76.2499 N.am      8 UNK        -0.4313 
     33 C         -73.2881   23.9119  -77.1087 C.2       8 UNK         0.5041 
     34 O         -72.4442   23.0297  -77.2763 O.2       8 UNK        -0.5577 
     35 CA        -74.6021   23.8293  -77.9024 C.3       7 UNK         0.0284 
     36 CB        -75.6497   23.0097  -77.1306 C.3       7 UNK        -0.1958 
     37 N         -75.1727   25.1270  -78.2657 N.am      7 UNK        -0.4454 
     38 C         -74.6788   25.9252  -79.2222 C.2       7 UNK         0.5089 
     39 O         -73.6198   25.7148  -79.8135 O.2       7 UNK        -0.5125 
     40 CA        -75.5208   27.1504  -79.6035 C.3       6 UNK         0.0408 
     41 CB        -76.6773   26.7373  -80.5287 C.3       6 UNK        -0.1791 
     42 N         -76.0674   27.8104  -78.4200 N.am      6 UNK        -0.4762 
     43 C         -75.5385   28.8968  -77.8436 C.2       6 UNK         0.5007 
     44 O         -74.5385   29.4789  -78.2641 O.2       6 UNK        -0.5032 
     45 CA        -76.2413   29.4283  -76.5763 C.3       5 UNK         0.0783 
     46 C46       -77.4040   30.3931  -76.9681 C.3       11 UNK        -0.0857 
     47 S47       -79.0867   29.6606  -76.9023 S.3       11 UNK        -0.2512 
     48 C48       -79.9371   30.7307  -75.6933 C.3       11 UNK         0.0225 
     49 N         -76.6775   28.3628  -75.6659 N.am      5 UNK        -0.4615 
     50 C         -75.9470   27.3424  -75.2033 C.2       4 UNK         0.5053 
     51 O         -74.7314   27.2445  -75.3547 O.2       4 UNK        -0.5105 
     52 CA        -76.7051   26.1984  -74.5110 C.3       4 UNK         0.0263 
     53 CB        -76.6591   26.3807  -72.9871 C.3       4 UNK        -0.1981 
     54 N         -78.0951   26.0335  -74.9637 N.am      4 UNK        -0.4224 
     55 C         -78.4840   25.8211  -76.2319 C.2       3 UNK         0.4895 
     56 O         -77.7004   25.7458  -77.1805 O.2       3 UNK        -0.5091 
     57 CA        -80.0012   25.7101  -76.4730 C.3       3 UNK         0.0250 
     58 CB        -80.3546   25.3978  -77.9433 C.3       3 UNK        -0.1996 
     59 N         -80.6480   24.7636  -75.5551 N.am      3 UNK        -0.4254 
     60 C         -80.4176   23.4443  -75.4469 C.2       2 UNK         0.5004 
     61 O         -79.6506   22.8096  -76.1728 O.2       2 UNK        -0.5226 
     62 CA        -81.1673   22.7345  -74.2987 C.3       2 UNK         0.0269 
     63 CB        -80.7429   21.2606  -74.1171 C.3       2 UNK        -0.1926 
     64 N         -81.0613   23.4716  -73.0280 N.am      2 UNK        -0.4687 
     65 C         -79.9262   23.7910  -72.3854 C.2       1 UNK         0.5165 
     66 O         -78.8029   23.4501  -72.7634 O.2       1 UNK        -0.5079 
     67 H67       -77.7920   23.3221  -67.5426 H         1 UNK         0.0900 
     68 H68       -76.9120   24.3050  -68.7148 H         1 UNK         0.0900 
     69 H69       -76.9043   22.5463  -68.8577 H         1 UNK         0.0900 
     70 H70       -78.2713   25.2720  -70.2059 H         1 UNK         0.2959 
     71 H71       -80.9875   24.4461  -70.6338 H         1 UNK         0.1079 
     72 H72       -79.3487   26.4679  -72.2706 H         1 UNK         0.0837 
     73 H73       -81.0841   26.3132  -72.2429 H         1 UNK         0.0837 
     74 H74       -81.8830   28.5350  -71.6219 H         1 UNK         0.0685 
     75 H75       -81.2786   29.5514  -70.3433 H         1 UNK         0.0685 
     76 H76       -81.2391   29.2496  -73.7932 H         1 UNK         0.1434 
     77 H77       -77.7765   31.7195  -74.3364 H         1 UNK         0.1329 
     78 H78       -78.5696   29.9882  -70.5155 H         1 UNK         0.1335 
     79 H79       -76.9467   32.6412  -71.8441 H         1 UNK         0.0680 
     80 H80       -76.5694   31.2847  -70.8152 H         1 UNK         0.0680 
     81 H81       -74.8878   29.6604  -71.1131 H         1 UNK         0.1032 
     82 H82       -75.2997   28.8575  -72.6062 H         1 UNK         0.1032 
     83 H83       -72.6690   30.3626  -72.2017 H         1 UNK         0.0461 
     84 H84       -71.2585   27.8628  -70.1574 H         1 UNK         0.3453 
     85 H85       -71.2356   29.5178  -70.7099 H         1 UNK         0.3453 
     86 H86       -73.5904   28.5097  -74.3302 H         1 UNK         0.2984 
     87 H87       -72.4295   29.3649  -76.5585 H         1 UNK         0.0554 
     88 H88       -70.2474   28.7430  -77.6146 H         1 UNK         0.0847 
     89 H89       -69.4739   28.7472  -76.0301 H         1 UNK         0.0847 
     90 H90       -70.1305   30.2334  -76.6938 H         1 UNK         0.0847 
     91 H91       -72.8918   27.2200  -76.3784 H         1 UNK         0.3141 
     92 H92       -71.2223   24.3596  -75.5785 H         1 UNK         0.0743 
     93 H93       -73.3448   25.3468  -73.6018 H         1 UNK         0.0784 
     94 H94       -72.8570   23.6724  -73.8541 H         1 UNK         0.0784 
     95 H95       -71.7253   24.8235  -73.1619 H         1 UNK         0.0784 
     96 H96       -73.8921   25.6063  -76.1518 H         1 UNK         0.3213 
     97 H97       -74.3835   23.2945  -78.8295 H         1 UNK         0.0855 
     98 H98       -75.9234   23.4815  -76.1876 H         1 UNK         0.0814 
     99 H99       -75.2713   22.0135  -76.8975 H         1 UNK         0.0814 
    100 H100      -76.5626   22.8810  -77.7129 H         1 UNK         0.0814 
    101 H101      -76.0746   25.3622  -77.8531 H         1 UNK         0.3105 
    102 H102      -74.8804   27.8391  -80.1588 H         1 UNK         0.0547 
    103 H103      -76.3025   26.2395  -81.4240 H         1 UNK         0.0837 
    104 H104      -77.3670   26.0498  -80.0369 H         1 UNK         0.0837 
    105 H105      -77.2495   27.6052  -80.8565 H         1 UNK         0.0837 
    106 H106      -76.8601   27.3580  -77.9751 H         1 UNK         0.3020 
    107 H107      -75.4891   30.0061  -76.0341 H         1 UNK         0.1245 
    108 H108      -77.2702   30.8018  -77.9724 H         1 UNK         0.0781 
    109 H109      -77.3653   31.2770  -76.3384 H         1 UNK         0.0781 
    110 H110      -81.0124   30.5811  -75.8022 H         1 UNK         0.0836 
    111 H111      -79.7591   31.7774  -75.9449 H         1 UNK         0.0836 
    112 H112      -77.6703   28.3579  -75.4802 H         1 UNK         0.3022 
    113 H113      -76.1772   25.2748  -74.7504 H         1 UNK         0.0747 
    114 H114      -77.0998   25.5284  -72.4716 H         1 UNK         0.0793 
    115 H115      -75.6285   26.4565  -72.6374 H         1 UNK         0.0793 
    116 H116      -77.1805   27.2846  -72.6689 H         1 UNK         0.0793 
    117 H117      -78.8049   26.0551  -74.2495 H         1 UNK         0.3047 
    118 H118      -80.4148   26.6938  -76.2443 H         1 UNK         0.0822 
    119 H119      -81.4332   25.3474  -78.0911 H         1 UNK         0.0807 
    120 H120      -79.9250   24.4516  -78.2738 H         1 UNK         0.0807 
    121 H121      -79.9727   26.1744  -78.6074 H         1 UNK         0.0807 
    122 H122      -81.3119   25.1698  -74.9109 H         1 UNK         0.2946 
    123 H123      -82.2221   22.7371  -74.5798 H         1 UNK         0.1144 
    124 H124      -79.6815   21.1676  -73.8850 H         1 UNK         0.0793 
    125 H125      -80.9262   20.6874  -75.0268 H         1 UNK         0.0793 
    126 H126      -81.3044   20.7820  -73.3148 H         1 UNK         0.0793 
    127 H127      -81.9378   23.7990  -72.6438 H         1 UNK         0.2896 
@<TRIPOS>BOND
     1    1    2 1    
     2    1   67 1    
     3    1   68 1    
     4    1   69 1    
     5    2    3 2    
     6    2    4 am   BACKBONE|DICT|INTERRES
     7    4    5 1    
     8    4   70 1    
     9    5    6 1    
    10    5   65 1    
    11    5   71 1    
    12    6    7 1    
    13    6   72 1    
    14    6   73 1    
    15    7    8 1    
    16    8    9 1    
    17    8   74 1    
    18    8   75 1    
    19    9   10 ar   
    20    9   14 ar   
    21   10   11 ar   
    22   10   76 1    
    23   11   12 ar   
    24   11   48 1    
    25   12   13 ar   
    26   12   77 1    
    27   13   14 ar   
    28   13   15 1    
    29   14   78 1    
    30   15   16 1    
    31   15   79 1    
    32   15   80 1    
    33   16   17 1    
    34   17   18 1    
    35   17   81 1    
    36   17   82 1    
    37   18   19 1    
    38   18   22 1    
    39   18   83 1    
    40   19   20 am   BACKBONE|DICT|INTERRES
    41   19   21 2    
    42   20   84 1    
    43   20   85 1    
    44   22   23 am   BACKBONE|DICT|INTERRES
    45   22   86 1    
    46   23   24 2    
    47   23   25 1    
    48   25   26 1    
    49   25   27 1    
    50   25   87 1    
    51   26   88 1    
    52   26   89 1    
    53   26   90 1    
    54   27   28 am   BACKBONE|DICT|INTERRES
    55   27   91 1    
    56   28   29 2    
    57   28   30 1    
    58   30   31 1    
    59   30   32 1    
    60   30   92 1    
    61   31   93 1    
    62   31   94 1    
    63   31   95 1    
    64   32   33 am   BACKBONE|DICT|INTERRES
    65   32   96 1    
    66   33   34 2    
    67   33   35 1    
    68   35   36 1    
    69   35   37 1    
    70   35   97 1    
    71   36   98 1    
    72   36   99 1    
    73   36  100 1    
    74   37   38 am   BACKBONE|DICT|INTERRES
    75   37  101 1    
    76   38   39 2    
    77   38   40 1    
    78   40   41 1    
    79   40   42 1    
    80   40  102 1    
    81   41  103 1    
    82   41  104 1    
    83   41  105 1    
    84   42   43 am   BACKBONE|DICT|INTERRES
    85   42  106 1    
    86   43   44 2    
    87   43   45 1    
    88   45   46 1    
    89   45   49 1    
    90   45  107 1    
    91   46   47 1    
    92   46  108 1    
    93   46  109 1    
    94   47   48 1    
    95   48  110 1    
    96   48  111 1    
    97   49   50 am   BACKBONE|DICT|INTERRES
    98   49  112 1    
    99   50   51 2    
   100   50   52 1    
   101   52   53 1    
   102   52   54 1    
   103   52  113 1    
   104   53  114 1    
   105   53  115 1    
   106   53  116 1    
   107   54   55 am   BACKBONE|DICT|INTERRES
   108   54  117 1    
   109   55   56 2    
   110   55   57 1    
   111   57   58 1    
   112   57   59 1    
   113   57  118 1    
   114   58  119 1    
   115   58  120 1    
   116   58  121 1    
   117   59   60 am   BACKBONE|DICT|INTERRES
   118   59  122 1    
   119   60   61 2    
   120   60   62 1    
   121   62   63 1    
   122   62   64 1    
   123   62  123 1    
   124   63  124 1    
   125   63  125 1    
   126   63  126 1    
   127   64   65 am   BACKBONE|DICT|INTERRES
   128   64  127 1    
   129   65   66 2    
@<TRIPOS>SUBSTRUCTURE
     1 UNK         1 GROUP             0       ****    0 ROOT    
