@<TRIPOS>MOLECULE
3R135
127   129    1
SMALL
USER_CHARGES


@<TRIPOS>ATOM
      1 CA        -81.4996   29.2992  -76.5489 C.3       0 UNK        -0.1998 
      2 C         -81.2123   28.2829  -75.4548 C.2       0 UNK         0.4909 
      3 O         -80.5600   27.2716  -75.7167 O.2       0 UNK        -0.5240 
      4 N         -81.6932   28.5423  -74.2311 N.am      1 UNK        -0.4739 
      5 CA        -81.5274   27.6845  -73.0516 C.3       1 UNK         0.0864 
      6 C6        -82.1394   28.3139  -71.7724 C.3       11 UNK        -0.0881 
      7 S7        -81.5653   30.0154  -71.4312 S.3       11 UNK        -0.2682 
      8 C8        -80.4026   29.7764  -70.0497 C.3       11 UNK         0.0289 
      9 C9        -79.0326   29.3441  -70.5472 C.ar      11 UNK        -0.0687 
     10 C10       -78.6979   27.9887  -70.6108 C.ar      11 UNK        -0.0823 
     11 C11       -77.4517   27.5906  -71.1026 C.ar      11 UNK        -0.0830 
     12 C12       -76.5285   28.5598  -71.5080 C.ar      11 UNK        -0.1021 
     13 C13       -76.8466   29.9190  -71.4371 C.ar      11 UNK        -0.0753 
     14 C14       -78.1009   30.3048  -70.9544 C.ar      11 UNK        -0.0933 
     15 C15       -75.8492   30.9634  -71.9178 C.3       11 UNK         0.0166 
     16 S16       -74.3859   31.0493  -70.8370 S.3       11 UNK        -0.2615 
     17 C17       -73.3926   32.3264  -71.6917 C.3       11 UNK        -0.0865 
     18 CA        -72.2074   31.7636  -72.5244 C.3       10 UNK         0.0862 
     19 C         -71.0295   31.2542  -71.6383 C.2       10 UNK         0.5551 
     20 N         -70.5288   30.0361  -71.8140 N.am      10 UNK        -0.7319 
     21 O         -70.5458   31.9909  -70.7821 O.2       10 UNK        -0.5018 
     22 N         -72.6762   30.8067  -73.5357 N.am      10 UNK        -0.4509 
     23 C         -72.0673   30.5423  -74.6947 C.2       10 UNK         0.4899 
     24 O         -71.0779   31.1430  -75.1188 O.2       10 UNK        -0.4839 
     25 CA        -72.6853   29.4042  -75.5211 C.3       9 UNK         0.0222 
     26 CB        -73.4253   29.9630  -76.7469 C.3       9 UNK        -0.1966 
     27 N         -71.6963   28.4153  -75.9559 N.am      9 UNK        -0.4218 
     28 C         -70.8827   27.7167  -75.1493 C.2       9 UNK         0.5020 
     29 O         -70.8624   27.8365  -73.9210 O.2       9 UNK        -0.5274 
     30 CA        -69.9438   26.7109  -75.8491 C.3       8 UNK         0.0270 
     31 CB        -69.1652   25.8172  -74.8589 C.3       8 UNK        -0.1976 
     32 N         -70.6381   25.8984  -76.8598 N.am      8 UNK        -0.4313 
     33 C         -71.6737   25.0705  -76.6549 C.2       8 UNK         0.5041 
     34 O         -72.1611   24.8200  -75.5505 O.2       8 UNK        -0.5577 
     35 CA        -72.2853   24.4197  -77.9053 C.3       7 UNK         0.0284 
     36 CB        -72.2570   22.8850  -77.8095 C.3       7 UNK        -0.1958 
     37 N         -73.6660   24.8747  -78.0520 N.am      7 UNK        -0.4454 
     38 C         -74.0115   26.0778  -78.5352 C.2       7 UNK         0.5089 
     39 O         -73.2077   26.8681  -79.0320 O.2       7 UNK        -0.5125 
     40 CA        -75.4945   26.4860  -78.4239 C.3       6 UNK         0.0408 
     41 CB        -76.2551   26.1017  -79.7019 C.3       6 UNK        -0.1791 
     42 N         -76.1695   25.8992  -77.2633 N.am      6 UNK        -0.4762 
     43 C         -75.8191   26.1210  -75.9855 C.2       6 UNK         0.5007 
     44 O         -74.9900   26.9665  -75.6556 O.2       6 UNK        -0.5032 
     45 CA        -76.4824   25.2696  -74.8805 C.3       5 UNK         0.0783 
     46 C46       -77.4210   26.1607  -74.0344 C.3       11 UNK        -0.0857 
     47 S47       -78.0540   25.3067  -72.5525 S.3       11 UNK        -0.2512 
     48 C48       -77.1117   26.1118  -71.2176 C.3       11 UNK         0.0225 
     49 N         -77.1911   24.0864  -75.3772 N.am      5 UNK        -0.4615 
     50 C         -76.6921   23.0717  -76.0964 C.2       4 UNK         0.5053 
     51 O         -75.5040   22.9599  -76.3965 O.2       4 UNK        -0.5105 
     52 CA        -77.7140   22.0471  -76.6283 C.3       4 UNK         0.0263 
     53 CB        -77.7324   20.7959  -75.7368 C.3       4 UNK        -0.1981 
     54 N         -79.0756   22.5899  -76.7238 N.am      4 UNK        -0.4224 
     55 C         -79.4519   23.6277  -77.4845 C.2       3 UNK         0.4895 
     56 O         -78.7078   24.1784  -78.2964 O.2       3 UNK        -0.5091 
     57 CA        -80.8552   24.2073  -77.2368 C.3       3 UNK         0.0250 
     58 CB        -81.9370   23.4303  -78.0122 C.3       3 UNK        -0.1996 
     59 N         -81.1879   24.3622  -75.8091 N.am      3 UNK        -0.4254 
     60 C         -81.4453   23.4106  -74.8956 C.2       2 UNK         0.5004 
     61 O         -81.4324   22.2073  -75.1595 O.2       2 UNK        -0.5226 
     62 CA        -81.7053   23.8461  -73.4382 C.3       2 UNK         0.0269 
     63 CB        -80.9629   22.9339  -72.4436 C.3       2 UNK        -0.1926 
     64 N         -81.3216   25.2368  -73.1755 N.am      2 UNK        -0.4687 
     65 C         -82.1387   26.2890  -73.3030 C.2       1 UNK         0.5165 
     66 O         -83.3254   26.1960  -73.6253 O.2       1 UNK        -0.5079 
     67 H67       -82.0623   28.8307  -77.3559 H         1 UNK         0.0900 
     68 H68       -82.0771   30.1457  -76.1779 H         1 UNK         0.0900 
     69 H69       -80.5652   29.6794  -76.9605 H         1 UNK         0.0900 
     70 H70       -82.2229   29.3877  -74.0736 H         1 UNK         0.2959 
     71 H71       -80.4526   27.5714  -72.8945 H         1 UNK         0.1079 
     72 H72       -83.2274   28.3568  -71.8567 H         1 UNK         0.0837 
     73 H73       -81.9359   27.6826  -70.9057 H         1 UNK         0.0837 
     74 H74       -80.3108   30.7177  -69.5058 H         1 UNK         0.0685 
     75 H75       -80.8045   29.0557  -69.3360 H         1 UNK         0.0685 
     76 H76       -79.4143   27.2406  -70.3000 H         1 UNK         0.1434 
     77 H77       -75.5631   28.2588  -71.8919 H         1 UNK         0.1329 
     78 H78       -78.3614   31.3536  -70.9087 H         1 UNK         0.1335 
     79 H79       -76.3171   31.9482  -71.9621 H         1 UNK         0.0680 
     80 H80       -75.5424   30.7212  -72.9360 H         1 UNK         0.0680 
     81 H81       -74.0440   32.9112  -72.3428 H         1 UNK         0.1032 
     82 H82       -73.0318   33.0368  -70.9454 H         1 UNK         0.1032 
     83 H83       -71.7899   32.6149  -73.0657 H         1 UNK         0.0461 
     84 H84       -70.8800   29.4185  -72.5367 H         1 UNK         0.3453 
     85 H85       -69.7646   29.7337  -71.2317 H         1 UNK         0.3453 
     86 H86       -73.4565   30.2327  -73.2531 H         1 UNK         0.2984 
     87 H87       -73.4083   28.8782  -74.8957 H         1 UNK         0.0554 
     88 H88       -74.1881   30.6831  -76.4478 H         1 UNK         0.0847 
     89 H89       -73.9304   29.1705  -77.2988 H         1 UNK         0.0847 
     90 H90       -72.7461   30.4714  -77.4324 H         1 UNK         0.0847 
     91 H91       -71.6465   28.2400  -76.9489 H         1 UNK         0.3141 
     92 H92       -69.2100   27.3115  -76.3890 H         1 UNK         0.0743 
     93 H93       -68.5577   26.4212  -74.1838 H         1 UNK         0.0784 
     94 H94       -69.8341   25.2165  -74.2417 H         1 UNK         0.0784 
     95 H95       -68.4909   25.1389  -75.3815 H         1 UNK         0.0784 
     96 H96       -70.3293   26.0380  -77.8129 H         1 UNK         0.3213 
     97 H97       -71.7156   24.7130  -78.7900 H         1 UNK         0.0855 
     98 H98       -72.8145   22.5225  -76.9446 H         1 UNK         0.0814 
     99 H99       -71.2336   22.5203  -77.7133 H         1 UNK         0.0814 
    100 H100      -72.6850   22.4238  -78.6996 H         1 UNK         0.0814 
    101 H101      -74.3735   24.3143  -77.5883 H         1 UNK         0.3105 
    102 H102      -75.5334   27.5716  -78.3173 H         1 UNK         0.0547 
    103 H103      -77.2868   26.4527  -79.6705 H         1 UNK         0.0837 
    104 H104      -75.7887   26.5448  -80.5829 H         1 UNK         0.0837 
    105 H105      -76.2750   25.0212  -79.8503 H         1 UNK         0.0837 
    106 H106      -76.8934   25.2174  -77.4578 H         1 UNK         0.3020 
    107 H107      -75.6684   24.9150  -74.2443 H         1 UNK         0.1245 
    108 H108      -78.2757   26.4843  -74.6301 H         1 UNK         0.0781 
    109 H109      -76.9119   27.0766  -73.7355 H         1 UNK         0.0781 
    110 H110      -76.0443   25.9672  -71.3920 H         1 UNK         0.0836 
    111 H111      -77.3376   25.6143  -70.2734 H         1 UNK         0.0836 
    112 H112      -78.1800   24.0691  -75.1813 H         1 UNK         0.3022 
    113 H113      -77.3971   21.7570  -77.6321 H         1 UNK         0.0747 
    114 H114      -78.3945   20.0302  -76.1416 H         1 UNK         0.0793 
    115 H115      -76.7371   20.3555  -75.6612 H         1 UNK         0.0793 
    116 H116      -78.0659   21.0269  -74.7241 H         1 UNK         0.0793 
    117 H117      -79.7784   22.2022  -76.0985 H         1 UNK         0.3047 
    118 H118      -80.8414   25.2227  -77.6368 H         1 UNK         0.0822 
    119 H119      -81.7288   23.4444  -79.0828 H         1 UNK         0.0807 
    120 H120      -82.9223   23.8736  -77.8681 H         1 UNK         0.0807 
    121 H121      -81.9918   22.3842  -77.7103 H         1 UNK         0.0807 
    122 H122      -81.1580   25.3253  -75.4874 H         1 UNK         0.2946 
    123 H123      -82.7769   23.7251  -73.2634 H         1 UNK         0.1144 
    124 H124      -81.1230   23.2537  -71.4138 H         1 UNK         0.0793 
    125 H125      -79.8885   22.9212  -72.6287 H         1 UNK         0.0793 
    126 H126      -81.3156   21.9042  -72.5168 H         1 UNK         0.0793 
    127 H127      -80.3507   25.3904  -72.9311 H         1 UNK         0.2896 
@<TRIPOS>BOND
     1    1    2 1    
     2    1   67 1    
     3    1   68 1    
     4    1   69 1    
     5    2    3 2    
     6    2    4 am   BACKBONE|DICT|INTERRES
     7    4    5 1    
     8    4   70 1    
     9    5    6 1    
    10    5   65 1    
    11    5   71 1    
    12    6    7 1    
    13    6   72 1    
    14    6   73 1    
    15    7    8 1    
    16    8    9 1    
    17    8   74 1    
    18    8   75 1    
    19    9   10 ar   
    20    9   14 ar   
    21   10   11 ar   
    22   10   76 1    
    23   11   12 ar   
    24   11   48 1    
    25   12   13 ar   
    26   12   77 1    
    27   13   14 ar   
    28   13   15 1    
    29   14   78 1    
    30   15   16 1    
    31   15   79 1    
    32   15   80 1    
    33   16   17 1    
    34   17   18 1    
    35   17   81 1    
    36   17   82 1    
    37   18   19 1    
    38   18   22 1    
    39   18   83 1    
    40   19   20 am   BACKBONE|DICT|INTERRES
    41   19   21 2    
    42   20   84 1    
    43   20   85 1    
    44   22   23 am   BACKBONE|DICT|INTERRES
    45   22   86 1    
    46   23   24 2    
    47   23   25 1    
    48   25   26 1    
    49   25   27 1    
    50   25   87 1    
    51   26   88 1    
    52   26   89 1    
    53   26   90 1    
    54   27   28 am   BACKBONE|DICT|INTERRES
    55   27   91 1    
    56   28   29 2    
    57   28   30 1    
    58   30   31 1    
    59   30   32 1    
    60   30   92 1    
    61   31   93 1    
    62   31   94 1    
    63   31   95 1    
    64   32   33 am   BACKBONE|DICT|INTERRES
    65   32   96 1    
    66   33   34 2    
    67   33   35 1    
    68   35   36 1    
    69   35   37 1    
    70   35   97 1    
    71   36   98 1    
    72   36   99 1    
    73   36  100 1    
    74   37   38 am   BACKBONE|DICT|INTERRES
    75   37  101 1    
    76   38   39 2    
    77   38   40 1    
    78   40   41 1    
    79   40   42 1    
    80   40  102 1    
    81   41  103 1    
    82   41  104 1    
    83   41  105 1    
    84   42   43 am   BACKBONE|DICT|INTERRES
    85   42  106 1    
    86   43   44 2    
    87   43   45 1    
    88   45   46 1    
    89   45   49 1    
    90   45  107 1    
    91   46   47 1    
    92   46  108 1    
    93   46  109 1    
    94   47   48 1    
    95   48  110 1    
    96   48  111 1    
    97   49   50 am   BACKBONE|DICT|INTERRES
    98   49  112 1    
    99   50   51 2    
   100   50   52 1    
   101   52   53 1    
   102   52   54 1    
   103   52  113 1    
   104   53  114 1    
   105   53  115 1    
   106   53  116 1    
   107   54   55 am   BACKBONE|DICT|INTERRES
   108   54  117 1    
   109   55   56 2    
   110   55   57 1    
   111   57   58 1    
   112   57   59 1    
   113   57  118 1    
   114   58  119 1    
   115   58  120 1    
   116   58  121 1    
   117   59   60 am   BACKBONE|DICT|INTERRES
   118   59  122 1    
   119   60   61 2    
   120   60   62 1    
   121   62   63 1    
   122   62   64 1    
   123   62  123 1    
   124   63  124 1    
   125   63  125 1    
   126   63  126 1    
   127   64   65 am   BACKBONE|DICT|INTERRES
   128   64  127 1    
   129   65   66 2    
@<TRIPOS>SUBSTRUCTURE
     1 UNK         1 GROUP             0       ****    0 ROOT    
