@<TRIPOS>MOLECULE
3R135
127   129    1
SMALL
USER_CHARGES


@<TRIPOS>ATOM
      1 CA        -79.4332   26.9359  -70.7463 C.3       0 UNK        -0.1998 
      2 C         -80.5304   26.9206  -71.7981 C.2       0 UNK         0.4909 
      3 O         -81.5516   26.2649  -71.5949 O.2       0 UNK        -0.5240 
      4 N         -80.3205   27.6445  -72.9074 N.am      1 UNK        -0.4739 
      5 CA        -81.2414   27.8720  -74.0316 C.3       1 UNK         0.0864 
      6 C6        -80.5793   28.7066  -75.1601 C.3       11 UNK        -0.0881 
      7 S7        -79.8770   30.2912  -74.5833 S.3       11 UNK        -0.2682 
      8 C8        -78.0982   30.0573  -74.9071 C.3       11 UNK         0.0289 
      9 C9        -77.4321   29.2042  -73.8374 C.ar      11 UNK        -0.0687 
     10 C10       -77.3294   27.8183  -73.9925 C.ar      11 UNK        -0.0823 
     11 C11       -76.7099   27.0389  -73.0108 C.ar      11 UNK        -0.0830 
     12 C12       -76.1684   27.6576  -71.8801 C.ar      11 UNK        -0.1021 
     13 C13       -76.2620   29.0427  -71.7156 C.ar      11 UNK        -0.0753 
     14 C14       -76.9036   29.8090  -72.6933 C.ar      11 UNK        -0.0933 
     15 C15       -75.6848   29.7045  -70.4721 C.3       11 UNK         0.0166 
     16 S16       -73.8991   30.0306  -70.6332 S.3       11 UNK        -0.2615 
     17 C17       -73.8731   31.4114  -71.8297 C.3       11 UNK        -0.0865 
     18 CA        -73.4578   30.9579  -73.2594 C.3       10 UNK         0.0862 
     19 C         -73.6945   32.0562  -74.3409 C.2       10 UNK         0.5551 
     20 N         -72.8683   32.1612  -75.3768 N.am      10 UNK        -0.7319 
     21 O         -74.6646   32.8057  -74.2629 O.2       10 UNK        -0.5018 
     22 N         -72.1264   30.3317  -73.3133 N.am      10 UNK        -0.4509 
     23 C         -70.9501   30.9213  -73.0545 C.2       10 UNK         0.4899 
     24 O         -70.8336   32.0680  -72.6217 O.2       10 UNK        -0.4839 
     25 CA        -69.6735   30.1110  -73.3590 C.3       9 UNK         0.0222 
     26 CB        -69.1318   29.4649  -72.0737 C.3       9 UNK        -0.1966 
     27 N         -69.8541   29.0744  -74.3816 N.am      9 UNK        -0.4218 
     28 C         -70.2093   29.2917  -75.6565 C.2       9 UNK         0.5020 
     29 O         -70.3607   30.4140  -76.1436 O.2       9 UNK        -0.5274 
     30 CA        -70.5182   28.0535  -76.5228 C.3       8 UNK         0.0270 
     31 CB        -69.9599   26.7271  -75.9581 C.3       8 UNK        -0.1976 
     32 N         -71.9600   27.9360  -76.7721 N.am      8 UNK        -0.4313 
     33 C         -72.9389   27.9106  -75.8568 C.2       8 UNK         0.5041 
     34 O         -72.7419   27.8998  -74.6416 O.2       8 UNK        -0.5577 
     35 CA        -74.3839   27.9196  -76.3759 C.3       7 UNK         0.0284 
     36 CB        -74.7218   29.2171  -77.1363 C.3       7 UNK        -0.1958 
     37 N         -74.7444   26.7262  -77.1471 N.am      7 UNK        -0.4454 
     38 C         -74.2771   26.3010  -78.3298 C.2       7 UNK         0.5089 
     39 O         -73.4229   26.8990  -78.9872 O.2       7 UNK        -0.5125 
     40 CA        -74.9035   25.0021  -78.8810 C.3       6 UNK         0.0408 
     41 CB        -73.9351   24.1987  -79.7751 C.3       6 UNK        -0.1791 
     42 N         -75.5203   24.1705  -77.8341 N.am      6 UNK        -0.4762 
     43 C         -74.9063   23.4462  -76.8821 C.2       6 UNK         0.5007 
     44 O         -73.6891   23.2661  -76.8393 O.2       6 UNK        -0.5032 
     45 CA        -75.7913   22.8650  -75.7492 C.3       5 UNK         0.0783 
     46 C46       -75.3041   23.2892  -74.3357 C.3       11 UNK        -0.0857 
     47 S47       -75.1235   25.0923  -74.0974 S.3       11 UNK        -0.2512 
     48 C48       -76.6210   25.5304  -73.1745 C.3       11 UNK         0.0225 
     49 N         -77.2228   23.1505  -75.9166 N.am      5 UNK        -0.4615 
     50 C         -78.0498   22.4766  -76.7251 C.2       4 UNK         0.5053 
     51 O         -77.6827   21.5575  -77.4584 O.2       4 UNK        -0.5105 
     52 CA        -79.5250   22.9234  -76.7105 C.3       4 UNK         0.0263 
     53 CB        -80.4483   21.9712  -77.4998 C.3       4 UNK        -0.1981 
     54 N         -80.0595   23.1499  -75.3606 N.am      4 UNK        -0.4224 
     55 C         -80.1436   22.2576  -74.3568 C.2       3 UNK         0.4895 
     56 O         -79.6707   21.1216  -74.4023 O.2       3 UNK        -0.5091 
     57 CA        -80.9007   22.6894  -73.0820 C.3       3 UNK         0.0250 
     58 CB        -79.9057   23.1663  -72.0116 C.3       3 UNK        -0.1996 
     59 N         -81.9021   23.7372  -73.3084 N.am      3 UNK        -0.4254 
     60 C         -82.9567   23.6394  -74.1338 C.2       2 UNK         0.5004 
     61 O         -83.3099   22.5864  -74.6655 O.2       2 UNK        -0.5226 
     62 CA        -83.7265   24.9349  -74.4654 C.3       2 UNK         0.0269 
     63 CB        -85.0936   24.9423  -73.7616 C.3       2 UNK        -0.1926 
     64 N         -83.0184   26.1811  -74.1415 N.am      2 UNK        -0.4687 
     65 C         -81.8154   26.5571  -74.6020 C.2       1 UNK         0.5165 
     66 O         -81.1446   25.8866  -75.3913 O.2       1 UNK        -0.5079 
     67 H67       -78.8325   27.8422  -70.8122 H         1 UNK         0.0900 
     68 H68       -78.7783   26.0740  -70.8667 H         1 UNK         0.0900 
     69 H69       -79.8667   26.8973  -69.7473 H         1 UNK         0.0900 
     70 H70       -79.4454   28.1452  -72.9905 H         1 UNK         0.2959 
     71 H71       -82.0748   28.4576  -73.6383 H         1 UNK         0.1079 
     72 H72       -81.3171   28.9407  -75.9301 H         1 UNK         0.0837 
     73 H73       -79.8037   28.1302  -75.6660 H         1 UNK         0.0837 
     74 H74       -77.9512   29.6200  -75.8958 H         1 UNK         0.0685 
     75 H75       -77.6191   31.0373  -74.9411 H         1 UNK         0.0685 
     76 H76       -77.7306   27.3433  -74.8770 H         1 UNK         0.1434 
     77 H77       -75.6736   27.0612  -71.1257 H         1 UNK         0.1329 
     78 H78       -76.9848   30.8802  -72.5702 H         1 UNK         0.1335 
     79 H79       -76.2113   30.6338  -70.2488 H         1 UNK         0.0680 
     80 H80       -75.8435   29.0550  -69.6100 H         1 UNK         0.0680 
     81 H81       -73.1932   32.1792  -71.4588 H         1 UNK         0.1032 
     82 H82       -74.8579   31.8801  -71.8422 H         1 UNK         0.1032 
     83 H83       -74.1428   30.1605  -73.5487 H         1 UNK         0.0461 
     84 H84       -73.0404   32.8706  -76.0709 H         1 UNK         0.3453 
     85 H85       -72.0640   31.5531  -75.4673 H         1 UNK         0.3453 
     86 H86       -72.1301   29.3842  -73.6867 H         1 UNK         0.2984 
     87 H87       -68.9239   30.8119  -73.7319 H         1 UNK         0.0554 
     88 H88       -68.1834   28.9574  -72.2508 H         1 UNK         0.0847 
     89 H89       -69.8330   28.7379  -71.6615 H         1 UNK         0.0847 
     90 H90       -68.9551   30.2176  -71.3039 H         1 UNK         0.0847 
     91 H91       -69.8052   28.1158  -74.0679 H         1 UNK         0.3141 
     92 H92       -70.0448   28.2285  -77.4901 H         1 UNK         0.0743 
     93 H93       -70.4385   26.4370  -75.0220 H         1 UNK         0.0784 
     94 H94       -70.1138   25.9118  -76.6651 H         1 UNK         0.0784 
     95 H95       -68.8857   26.7944  -75.7795 H         1 UNK         0.0784 
     96 H96       -72.2486   27.8813  -77.7453 H         1 UNK         0.3213 
     97 H97       -75.0183   27.8988  -75.4899 H         1 UNK         0.0855 
     98 H98       -74.5292   30.0911  -76.5147 H         1 UNK         0.0814 
     99 H99       -75.7750   29.2472  -77.4148 H         1 UNK         0.0814 
    100 H100      -74.1329   29.3310  -78.0465 H         1 UNK         0.0814 
    101 H101      -75.3959   26.1109  -76.6820 H         1 UNK         0.3105 
    102 H102      -75.7286   25.3250  -79.5174 H         1 UNK         0.0547 
    103 H103      -73.6531   24.7754  -80.6568 H         1 UNK         0.0837 
    104 H104      -73.0125   23.9437  -79.2535 H         1 UNK         0.0837 
    105 H105      -74.3915   23.2737  -80.1269 H         1 UNK         0.0837 
    106 H106      -76.5280   24.2213  -77.7834 H         1 UNK         0.3020 
    107 H107      -75.6659   21.7812  -75.8130 H         1 UNK         0.1245 
    108 H108      -74.3289   22.8401  -74.1387 H         1 UNK         0.0781 
    109 H109      -75.9658   22.8825  -73.5690 H         1 UNK         0.0781 
    110 H110      -76.6052   25.0402  -72.1998 H         1 UNK         0.0836 
    111 H111      -77.5039   25.1599  -73.6959 H         1 UNK         0.0836 
    112 H112      -77.6032   23.8906  -75.3476 H         1 UNK         0.3022 
    113 H113      -79.5527   23.8922  -77.2116 H         1 UNK         0.0747 
    114 H114      -81.4784   22.3282  -77.4985 H         1 UNK         0.0793 
    115 H115      -80.1342   21.8930  -78.5414 H         1 UNK         0.0793 
    116 H116      -80.4434   20.9641  -77.0814 H         1 UNK         0.0793 
    117 H117      -80.4752   24.0675  -75.2174 H         1 UNK         0.3047 
    118 H118      -81.4254   21.8111  -72.7006 H         1 UNK         0.0822 
    119 H119      -80.4135   23.4181  -71.0802 H         1 UNK         0.0807 
    120 H120      -79.3531   24.0460  -72.3409 H         1 UNK         0.0807 
    121 H121      -79.1753   22.3889  -71.7823 H         1 UNK         0.0807 
    122 H122      -81.7351   24.6339  -72.8629 H         1 UNK         0.2946 
    123 H123      -83.8943   24.9286  -75.5446 H         1 UNK         0.1144 
    124 H124      -85.6645   24.0448  -74.0043 H         1 UNK         0.0793 
    125 H125      -85.6951   25.7978  -74.0692 H         1 UNK         0.0793 
    126 H126      -84.9868   24.9772  -72.6766 H         1 UNK         0.0793 
    127 H127      -83.4557   26.7626  -73.4403 H         1 UNK         0.2896 
@<TRIPOS>BOND
     1    1    2 1    
     2    1   67 1    
     3    1   68 1    
     4    1   69 1    
     5    2    3 2    
     6    2    4 am   BACKBONE|DICT|INTERRES
     7    4    5 1    
     8    4   70 1    
     9    5    6 1    
    10    5   65 1    
    11    5   71 1    
    12    6    7 1    
    13    6   72 1    
    14    6   73 1    
    15    7    8 1    
    16    8    9 1    
    17    8   74 1    
    18    8   75 1    
    19    9   10 ar   
    20    9   14 ar   
    21   10   11 ar   
    22   10   76 1    
    23   11   12 ar   
    24   11   48 1    
    25   12   13 ar   
    26   12   77 1    
    27   13   14 ar   
    28   13   15 1    
    29   14   78 1    
    30   15   16 1    
    31   15   79 1    
    32   15   80 1    
    33   16   17 1    
    34   17   18 1    
    35   17   81 1    
    36   17   82 1    
    37   18   19 1    
    38   18   22 1    
    39   18   83 1    
    40   19   20 am   BACKBONE|DICT|INTERRES
    41   19   21 2    
    42   20   84 1    
    43   20   85 1    
    44   22   23 am   BACKBONE|DICT|INTERRES
    45   22   86 1    
    46   23   24 2    
    47   23   25 1    
    48   25   26 1    
    49   25   27 1    
    50   25   87 1    
    51   26   88 1    
    52   26   89 1    
    53   26   90 1    
    54   27   28 am   BACKBONE|DICT|INTERRES
    55   27   91 1    
    56   28   29 2    
    57   28   30 1    
    58   30   31 1    
    59   30   32 1    
    60   30   92 1    
    61   31   93 1    
    62   31   94 1    
    63   31   95 1    
    64   32   33 am   BACKBONE|DICT|INTERRES
    65   32   96 1    
    66   33   34 2    
    67   33   35 1    
    68   35   36 1    
    69   35   37 1    
    70   35   97 1    
    71   36   98 1    
    72   36   99 1    
    73   36  100 1    
    74   37   38 am   BACKBONE|DICT|INTERRES
    75   37  101 1    
    76   38   39 2    
    77   38   40 1    
    78   40   41 1    
    79   40   42 1    
    80   40  102 1    
    81   41  103 1    
    82   41  104 1    
    83   41  105 1    
    84   42   43 am   BACKBONE|DICT|INTERRES
    85   42  106 1    
    86   43   44 2    
    87   43   45 1    
    88   45   46 1    
    89   45   49 1    
    90   45  107 1    
    91   46   47 1    
    92   46  108 1    
    93   46  109 1    
    94   47   48 1    
    95   48  110 1    
    96   48  111 1    
    97   49   50 am   BACKBONE|DICT|INTERRES
    98   49  112 1    
    99   50   51 2    
   100   50   52 1    
   101   52   53 1    
   102   52   54 1    
   103   52  113 1    
   104   53  114 1    
   105   53  115 1    
   106   53  116 1    
   107   54   55 am   BACKBONE|DICT|INTERRES
   108   54  117 1    
   109   55   56 2    
   110   55   57 1    
   111   57   58 1    
   112   57   59 1    
   113   57  118 1    
   114   58  119 1    
   115   58  120 1    
   116   58  121 1    
   117   59   60 am   BACKBONE|DICT|INTERRES
   118   59  122 1    
   119   60   61 2    
   120   60   62 1    
   121   62   63 1    
   122   62   64 1    
   123   62  123 1    
   124   63  124 1    
   125   63  125 1    
   126   63  126 1    
   127   64   65 am   BACKBONE|DICT|INTERRES
   128   64  127 1    
   129   65   66 2    
@<TRIPOS>SUBSTRUCTURE
     1 UNK         1 GROUP             0       ****    0 ROOT    
