@<TRIPOS>MOLECULE
3R135
127   129    1
SMALL
USER_CHARGES


@<TRIPOS>ATOM
      1 CA        -80.1483   30.0752  -78.3267 C.3       0 UNK        -0.1998 
      2 C         -79.0655   29.1752  -77.7526 C.2       0 UNK         0.4909 
      3 O         -77.8934   29.3352  -78.0973 O.2       0 UNK        -0.5240 
      4 N         -79.4484   28.2390  -76.8754 N.am      1 UNK        -0.4739 
      5 CA        -78.5454   27.2984  -76.2021 C.3       1 UNK         0.0864 
      6 C6        -78.3267   27.6516  -74.7114 C.3       11 UNK        -0.0881 
      7 S7        -79.8355   27.5791  -73.6848 S.3       11 UNK        -0.2682 
      8 C8        -79.3890   28.7225  -72.3342 C.3       11 UNK         0.0289 
      9 C9        -78.0550   28.3715  -71.6830 C.ar      11 UNK        -0.0687 
     10 C10       -77.8432   27.0980  -71.1485 C.ar      11 UNK        -0.0823 
     11 C11       -76.6103   26.7614  -70.5849 C.ar      11 UNK        -0.0830 
     12 C12       -75.6005   27.7241  -70.5156 C.ar      11 UNK        -0.1021 
     13 C13       -75.7857   28.9994  -71.0634 C.ar      11 UNK        -0.0753 
     14 C14       -77.0231   29.3143  -71.6352 C.ar      11 UNK        -0.0933 
     15 C15       -74.6862   30.0639  -71.0822 C.3       11 UNK         0.0166 
     16 S16       -73.0188   29.5241  -70.5666 S.3       11 UNK        -0.2615 
     17 C17       -72.5467   28.3760  -71.9079 C.3       11 UNK        -0.0865 
     18 CA        -71.4884   29.0017  -72.8547 C.3       10 UNK         0.0862 
     19 C         -70.7108   27.9167  -73.6498 C.2       10 UNK         0.5551 
     20 N         -69.8689   27.1468  -72.9735 N.am      10 UNK        -0.7319 
     21 O         -70.8553   27.7577  -74.8605 O.2       10 UNK        -0.5018 
     22 N         -72.1051   29.9836  -73.7561 N.am      10 UNK        -0.4509 
     23 C         -71.5516   31.1476  -74.1230 C.2       10 UNK         0.4899 
     24 O         -70.4993   31.5800  -73.6511 O.2       10 UNK        -0.4839 
     25 CA        -72.2640   31.9777  -75.2127 C.3       9 UNK         0.0222 
     26 CB        -71.4163   32.0179  -76.4958 C.3       9 UNK        -0.1966 
     27 N         -73.5960   31.4722  -75.5474 N.am      9 UNK        -0.4218 
     28 C         -74.6966   31.6358  -74.8021 C.2       9 UNK         0.5020 
     29 O         -74.7516   32.3842  -73.8261 O.2       9 UNK        -0.5274 
     30 CA        -75.9401   30.8087  -75.1867 C.3       8 UNK         0.0270 
     31 CB        -77.0929   31.7211  -75.6371 C.3       8 UNK        -0.1976 
     32 N         -75.6972   29.7865  -76.2145 N.am      8 UNK        -0.4313 
     33 C         -74.9552   28.6845  -76.0467 C.2       8 UNK         0.5041 
     34 O         -74.4193   28.3735  -74.9821 O.2       8 UNK        -0.5577 
     35 CA        -74.7267   27.8172  -77.2863 C.3       7 UNK         0.0284 
     36 CB        -73.2849   27.9719  -77.8037 C.3       7 UNK        -0.1958 
     37 N         -74.9985   26.4237  -76.9492 N.am      7 UNK        -0.4454 
     38 C         -75.3880   25.4921  -77.8275 C.2       7 UNK         0.5089 
     39 O         -75.4879   25.7057  -79.0360 O.2       7 UNK        -0.5125 
     40 CA        -75.8006   24.1076  -77.2954 C.3       6 UNK         0.0408 
     41 CB        -74.9147   22.9818  -77.8674 C.3       6 UNK        -0.1791 
     42 N         -75.9438   24.0206  -75.8350 N.am      6 UNK        -0.4762 
     43 C         -74.9878   23.9248  -74.9016 C.2       6 UNK         0.5007 
     44 O         -73.7853   23.9510  -75.1620 O.2       6 UNK        -0.5032 
     45 CA        -75.4258   23.7852  -73.4254 C.3       5 UNK         0.0783 
     46 C46       -74.9089   24.9740  -72.5786 C.3       11 UNK        -0.0857 
     47 S47       -74.8490   24.5836  -70.7912 S.3       11 UNK        -0.2512 
     48 C48       -76.3572   25.3442  -70.0900 C.3       11 UNK         0.0225 
     49 N         -76.8701   23.5809  -73.2283 N.am      5 UNK        -0.4615 
     50 C         -77.5300   22.4435  -73.4850 C.2       4 UNK         0.5053 
     51 O         -77.0338   21.4827  -74.0724 O.2       4 UNK        -0.5105 
     52 CA        -78.9661   22.3384  -72.9533 C.3       4 UNK         0.0263 
     53 CB        -79.1232   22.9082  -71.5275 C.3       4 UNK        -0.1981 
     54 N         -79.9295   22.9614  -73.8614 N.am      4 UNK        -0.4224 
     55 C         -81.2318   22.6337  -73.8948 C.2       3 UNK         0.4895 
     56 O         -81.7262   21.7460  -73.1975 O.2       3 UNK        -0.5091 
     57 CA        -82.1664   23.4211  -74.8338 C.3       3 UNK         0.0250 
     58 CB        -82.9217   24.5036  -74.0447 C.3       3 UNK        -0.1996 
     59 N         -81.4841   24.0503  -75.9615 N.am      3 UNK        -0.4254 
     60 C         -80.9185   23.3983  -76.9853 C.2       2 UNK         0.5004 
     61 O         -80.9959   22.1801  -77.1469 O.2       2 UNK        -0.5226 
     62 CA        -80.1134   24.2417  -77.9933 C.3       2 UNK         0.0269 
     63 CB        -80.8990   24.4034  -79.3050 C.3       2 UNK        -0.1926 
     64 N         -79.7027   25.5728  -77.5202 N.am      2 UNK        -0.4687 
     65 C         -78.9577   25.8321  -76.4347 C.2       1 UNK         0.5165 
     66 O         -78.5983   24.9602  -75.6399 O.2       1 UNK        -0.5079 
     67 H67       -81.1336   29.8352  -77.9277 H         1 UNK         0.0900 
     68 H68       -79.9313   31.1167  -78.0911 H         1 UNK         0.0900 
     69 H69       -80.1855   29.9715  -79.4107 H         1 UNK         0.0900 
     70 H70       -80.4209   28.1720  -76.6064 H         1 UNK         0.2959 
     71 H71       -77.5683   27.3561  -76.6783 H         1 UNK         0.1079 
     72 H72       -77.9196   28.6600  -74.6464 H         1 UNK         0.0837 
     73 H73       -77.5693   27.0021  -74.2681 H         1 UNK         0.0837 
     74 H74       -80.1729   28.6993  -71.5763 H         1 UNK         0.0685 
     75 H75       -79.3716   29.7390  -72.7306 H         1 UNK         0.0685 
     76 H76       -78.6363   26.3652  -71.1993 H         1 UNK         0.1434 
     77 H77       -74.6577   27.4486  -70.0666 H         1 UNK         0.1329 
     78 H78       -77.1789   30.2992  -72.0538 H         1 UNK         0.1335 
     79 H79       -74.9921   30.8900  -70.4391 H         1 UNK         0.0680 
     80 H80       -74.6055   30.4678  -72.0895 H         1 UNK         0.0680 
     81 H81       -72.1613   27.4764  -71.4246 H         1 UNK         0.1032 
     82 H82       -73.4267   28.0539  -72.4680 H         1 UNK         0.1032 
     83 H83       -70.7439   29.5070  -72.2359 H         1 UNK         0.0461 
     84 H84       -69.7258   27.2706  -71.9833 H         1 UNK         0.3453 
     85 H85       -69.3540   26.4353  -73.4682 H         1 UNK         0.3453 
     86 H86       -72.9371   29.6552  -74.2339 H         1 UNK         0.2984 
     87 H87       -72.3626   32.9979  -74.8359 H         1 UNK         0.0554 
     88 H88       -70.4288   32.4378  -76.2989 H         1 UNK         0.0847 
     89 H89       -71.8814   32.6389  -77.2617 H         1 UNK         0.0847 
     90 H90       -71.2673   31.0212  -76.9134 H         1 UNK         0.0847 
     91 H91       -73.6580   30.8527  -76.3410 H         1 UNK         0.3141 
     92 H92       -76.2524   30.2933  -74.2778 H         1 UNK         0.0743 
     93 H93       -76.8718   32.2133  -76.5848 H         1 UNK         0.0784 
     94 H94       -78.0185   31.1586  -75.7561 H         1 UNK         0.0784 
     95 H95       -77.2887   32.5018  -74.9007 H         1 UNK         0.0784 
     96 H96       -76.1840   29.9129  -77.0977 H         1 UNK         0.3213 
     97 H97       -75.4176   28.1365  -78.0702 H         1 UNK         0.0855 
     98 H98       -72.5555   27.6507  -77.0587 H         1 UNK         0.0814 
     99 H99       -73.0645   29.0106  -78.0518 H         1 UNK         0.0814 
    100 H100      -73.1205   27.3832  -78.7062 H         1 UNK         0.0814 
    101 H101      -74.9116   26.1854  -75.9697 H         1 UNK         0.3105 
    102 H102      -76.8058   23.9370  -77.6814 H         1 UNK         0.0547 
    103 H103      -75.2272   22.0041  -77.5006 H         1 UNK         0.0837 
    104 H104      -73.8632   23.1180  -77.6147 H         1 UNK         0.0837 
    105 H105      -74.9789   22.9545  -78.9558 H         1 UNK         0.0837 
    106 H106      -76.9056   24.0683  -75.5085 H         1 UNK         0.3020 
    107 H107      -74.9214   22.8824  -73.0723 H         1 UNK         0.1245 
    108 H108      -75.4937   25.8724  -72.7776 H         1 UNK         0.0781 
    109 H109      -73.8847   25.2332  -72.8551 H         1 UNK         0.0781 
    110 H110      -76.2672   25.3619  -69.0032 H         1 UNK         0.0836 
    111 H111      -77.2053   24.6987  -70.3113 H         1 UNK         0.0836 
    112 H112      -77.3629   24.3306  -72.7683 H         1 UNK         0.3022 
    113 H113      -79.1813   21.2684  -72.9033 H         1 UNK         0.0747 
    114 H114      -80.0588   22.5789  -71.0753 H         1 UNK         0.0793 
    115 H115      -78.3189   22.5683  -70.8735 H         1 UNK         0.0793 
    116 H116      -79.1279   23.9976  -71.5241 H         1 UNK         0.0793 
    117 H117      -79.5699   23.6756  -74.4900 H         1 UNK         0.3047 
    118 H118      -82.8970   22.7148  -75.2342 H         1 UNK         0.0822 
    119 H119      -83.6484   25.0198  -74.6724 H         1 UNK         0.0807 
    120 H120      -82.2416   25.2505  -73.6322 H         1 UNK         0.0807 
    121 H121      -83.4706   24.0668  -73.2092 H         1 UNK         0.0807 
    122 H122      -81.3616   25.0510  -75.9165 H         1 UNK         0.2946 
    123 H123      -79.2037   23.6775  -78.2082 H         1 UNK         0.1144 
    124 H124      -80.2987   24.8953  -80.0705 H         1 UNK         0.0793 
    125 H125      -81.8078   24.9890  -79.1606 H         1 UNK         0.0793 
    126 H126      -81.1970   23.4334  -79.7061 H         1 UNK         0.0793 
    127 H127      -79.9511   26.3532  -78.1117 H         1 UNK         0.2896 
@<TRIPOS>BOND
     1    1    2 1    
     2    1   67 1    
     3    1   68 1    
     4    1   69 1    
     5    2    3 2    
     6    2    4 am   BACKBONE|DICT|INTERRES
     7    4    5 1    
     8    4   70 1    
     9    5    6 1    
    10    5   65 1    
    11    5   71 1    
    12    6    7 1    
    13    6   72 1    
    14    6   73 1    
    15    7    8 1    
    16    8    9 1    
    17    8   74 1    
    18    8   75 1    
    19    9   10 ar   
    20    9   14 ar   
    21   10   11 ar   
    22   10   76 1    
    23   11   12 ar   
    24   11   48 1    
    25   12   13 ar   
    26   12   77 1    
    27   13   14 ar   
    28   13   15 1    
    29   14   78 1    
    30   15   16 1    
    31   15   79 1    
    32   15   80 1    
    33   16   17 1    
    34   17   18 1    
    35   17   81 1    
    36   17   82 1    
    37   18   19 1    
    38   18   22 1    
    39   18   83 1    
    40   19   20 am   BACKBONE|DICT|INTERRES
    41   19   21 2    
    42   20   84 1    
    43   20   85 1    
    44   22   23 am   BACKBONE|DICT|INTERRES
    45   22   86 1    
    46   23   24 2    
    47   23   25 1    
    48   25   26 1    
    49   25   27 1    
    50   25   87 1    
    51   26   88 1    
    52   26   89 1    
    53   26   90 1    
    54   27   28 am   BACKBONE|DICT|INTERRES
    55   27   91 1    
    56   28   29 2    
    57   28   30 1    
    58   30   31 1    
    59   30   32 1    
    60   30   92 1    
    61   31   93 1    
    62   31   94 1    
    63   31   95 1    
    64   32   33 am   BACKBONE|DICT|INTERRES
    65   32   96 1    
    66   33   34 2    
    67   33   35 1    
    68   35   36 1    
    69   35   37 1    
    70   35   97 1    
    71   36   98 1    
    72   36   99 1    
    73   36  100 1    
    74   37   38 am   BACKBONE|DICT|INTERRES
    75   37  101 1    
    76   38   39 2    
    77   38   40 1    
    78   40   41 1    
    79   40   42 1    
    80   40  102 1    
    81   41  103 1    
    82   41  104 1    
    83   41  105 1    
    84   42   43 am   BACKBONE|DICT|INTERRES
    85   42  106 1    
    86   43   44 2    
    87   43   45 1    
    88   45   46 1    
    89   45   49 1    
    90   45  107 1    
    91   46   47 1    
    92   46  108 1    
    93   46  109 1    
    94   47   48 1    
    95   48  110 1    
    96   48  111 1    
    97   49   50 am   BACKBONE|DICT|INTERRES
    98   49  112 1    
    99   50   51 2    
   100   50   52 1    
   101   52   53 1    
   102   52   54 1    
   103   52  113 1    
   104   53  114 1    
   105   53  115 1    
   106   53  116 1    
   107   54   55 am   BACKBONE|DICT|INTERRES
   108   54  117 1    
   109   55   56 2    
   110   55   57 1    
   111   57   58 1    
   112   57   59 1    
   113   57  118 1    
   114   58  119 1    
   115   58  120 1    
   116   58  121 1    
   117   59   60 am   BACKBONE|DICT|INTERRES
   118   59  122 1    
   119   60   61 2    
   120   60   62 1    
   121   62   63 1    
   122   62   64 1    
   123   62  123 1    
   124   63  124 1    
   125   63  125 1    
   126   63  126 1    
   127   64   65 am   BACKBONE|DICT|INTERRES
   128   64  127 1    
   129   65   66 2    
@<TRIPOS>SUBSTRUCTURE
     1 UNK         1 GROUP             0       ****    0 ROOT    
