@<TRIPOS>MOLECULE
3R135
127   129    1
SMALL
USER_CHARGES


@<TRIPOS>ATOM
      1 CA        -80.5427   29.5719  -76.8204 C.3       0 UNK        -0.1998 
      2 C         -80.4197   28.8777  -75.4728 C.2       0 UNK         0.4909 
      3 O         -79.3493   28.3721  -75.1376 O.2       0 UNK        -0.5240 
      4 N         -81.5084   28.8446  -74.6938 N.am      1 UNK        -0.4739 
      5 CA        -81.5681   28.2166  -73.3696 C.3       1 UNK         0.0864 
      6 C6        -82.6118   28.8966  -72.4471 C.3       11 UNK        -0.0881 
      7 S7        -82.1465   30.6080  -72.0190 S.3       11 UNK        -0.2682 
      8 C8        -81.4282   30.3890  -70.3577 C.3       11 UNK         0.0289 
      9 C9        -80.0193   29.8139  -70.4168 C.ar      11 UNK        -0.0687 
     10 C10       -79.8114   28.4313  -70.3745 C.ar      11 UNK        -0.0823 
     11 C11       -78.5202   27.8987  -70.4497 C.ar      11 UNK        -0.0830 
     12 C12       -77.4292   28.7749  -70.4803 C.ar      11 UNK        -0.1021 
     13 C13       -77.6192   30.1582  -70.5491 C.ar      11 UNK        -0.0753 
     14 C14       -78.9195   30.6704  -70.5179 C.ar      11 UNK        -0.0933 
     15 C15       -76.4269   31.1012  -70.6643 C.3       11 UNK         0.0166 
     16 S16       -75.5166   30.8722  -72.2310 S.3       11 UNK        -0.2615 
     17 C17       -74.3378   29.5509  -71.7838 C.3       11 UNK        -0.0865 
     18 CA        -72.9428   29.7530  -72.4264 C.3       10 UNK         0.0862 
     19 C         -71.8776   28.9023  -71.6716 C.2       10 UNK         0.5551 
     20 N         -71.3916   27.7966  -72.2188 N.am      10 UNK        -0.7319 
     21 O         -71.4884   29.2588  -70.5621 O.2       10 UNK        -0.5018 
     22 N         -72.9974   29.5400  -73.8823 N.am      10 UNK        -0.4509 
     23 C         -72.0090   29.8113  -74.7418 C.2       10 UNK         0.4899 
     24 O         -70.9493   30.3602  -74.4332 O.2       10 UNK        -0.4839 
     25 CA        -72.2495   29.3733  -76.1990 C.3       9 UNK         0.0222 
     26 CB        -71.7130   30.4195  -77.1926 C.3       9 UNK        -0.1966 
     27 N         -71.6826   28.0617  -76.5411 N.am      9 UNK        -0.4218 
     28 C         -71.7307   26.9237  -75.8309 C.2       9 UNK         0.5020 
     29 O         -72.2121   26.8073  -74.7039 O.2       9 UNK        -0.5274 
     30 CA        -71.2184   25.6748  -76.5515 C.3       8 UNK         0.0270 
     31 CB        -70.7254   24.5890  -75.5769 C.3       8 UNK        -0.1976 
     32 N         -72.3492   25.1598  -77.3124 N.am      8 UNK        -0.4313 
     33 C         -72.5074   25.2973  -78.6324 C.2       8 UNK         0.5041 
     34 O         -71.6471   25.7585  -79.3842 O.2       8 UNK        -0.5577 
     35 CA        -73.8679   24.8768  -79.2070 C.3       7 UNK         0.0284 
     36 CB        -73.9957   23.3450  -79.2391 C.3       7 UNK        -0.1958 
     37 N         -74.9996   25.4612  -78.4790 N.am      7 UNK        -0.4454 
     38 C         -75.2914   26.7717  -78.4463 C.2       7 UNK         0.5089 
     39 O         -74.6297   27.6374  -79.0199 O.2       7 UNK        -0.5125 
     40 CA        -76.5421   27.1909  -77.6567 C.3       6 UNK         0.0408 
     41 CB        -77.8207   26.8648  -78.4444 C.3       6 UNK        -0.1791 
     42 N         -76.6019   26.5470  -76.3484 N.am      6 UNK        -0.4762 
     43 C         -75.8816   26.9111  -75.2792 C.2       6 UNK         0.5007 
     44 O         -75.1589   27.9075  -75.2444 O.2       6 UNK        -0.5032 
     45 CA        -75.9708   26.0089  -74.0321 C.3       5 UNK         0.0783 
     46 C46       -77.0288   26.5479  -73.0368 C.3       11 UNK        -0.0857 
     47 S47       -76.8498   25.7903  -71.3855 S.3       11 UNK        -0.2512 
     48 C48       -78.3429   26.3793  -70.5019 C.3       11 UNK         0.0225 
     49 N         -76.2040   24.5984  -74.3688 N.am      5 UNK        -0.4615 
     50 C         -75.3439   23.8054  -75.0230 C.2       4 UNK         0.5053 
     51 O         -74.2454   24.1694  -75.4387 O.2       4 UNK        -0.5105 
     52 CA        -75.8048   22.3633  -75.2900 C.3       4 UNK         0.0263 
     53 CB        -75.6517   21.5005  -74.0271 C.3       4 UNK        -0.1981 
     54 N         -77.1856   22.2931  -75.7727 N.am      4 UNK        -0.4224 
     55 C         -77.5987   22.7763  -76.9533 C.2       3 UNK         0.4895 
     56 O         -76.8552   23.3068  -77.7779 O.2       3 UNK        -0.5091 
     57 CA        -79.1102   22.7101  -77.2339 C.3       3 UNK         0.0250 
     58 CB        -79.5174   21.3042  -77.7035 C.3       3 UNK        -0.1996 
     59 N         -79.9378   23.1132  -76.0890 N.am      3 UNK        -0.4254 
     60 C         -79.8492   24.3033  -75.4798 C.2       2 UNK         0.5004 
     61 O         -79.0324   25.1699  -75.7950 O.2       2 UNK        -0.5226 
     62 CA        -80.7928   24.5606  -74.3020 C.3       2 UNK         0.0269 
     63 CB        -80.3195   23.8127  -73.0418 C.3       2 UNK        -0.1926 
     64 N         -80.8041   25.9973  -74.0454 N.am      2 UNK        -0.4687 
     65 C         -81.7991   26.6965  -73.4972 C.2       1 UNK         0.5165 
     66 O         -82.8579   26.1904  -73.1199 O.2       1 UNK        -0.5079 
     67 H67       -81.4560   30.1643  -76.8895 H         1 UNK         0.0900 
     68 H68       -80.5513   28.8340  -77.6231 H         1 UNK         0.0900 
     69 H69       -79.6941   30.2389  -76.9778 H         1 UNK         0.0900 
     70 H70       -82.3686   29.2622  -75.0194 H         1 UNK         0.2959 
     71 H71       -80.5898   28.3338  -72.9019 H         1 UNK         0.1079 
     72 H72       -83.5916   28.9148  -72.9279 H         1 UNK         0.0837 
     73 H73       -82.7471   28.3301  -71.5241 H         1 UNK         0.0837 
     74 H74       -81.4055   31.3598  -69.8601 H         1 UNK         0.0685 
     75 H75       -82.0764   29.7572  -69.7484 H         1 UNK         0.0685 
     76 H76       -80.6616   27.7661  -70.3110 H         1 UNK         0.1434 
     77 H77       -76.4266   28.3773  -70.4901 H         1 UNK         0.1329 
     78 H78       -79.0792   31.7389  -70.5690 H         1 UNK         0.1335 
     79 H79       -76.7631   32.1383  -70.6225 H         1 UNK         0.0680 
     80 H80       -75.7650   30.9694  -69.8077 H         1 UNK         0.0680 
     81 H81       -74.7515   28.5865  -72.0830 H         1 UNK         0.1032 
     82 H82       -74.2530   29.5182  -70.6959 H         1 UNK         0.1032 
     83 H83       -72.6499   30.7934  -72.2718 H         1 UNK         0.0461 
     84 H84       -70.7032   27.2569  -71.7205 H         1 UNK         0.3453 
     85 H85       -71.7232   27.4827  -73.1309 H         1 UNK         0.3453 
     86 H86       -73.8042   29.0339  -74.2355 H         1 UNK         0.2984 
     87 H87       -73.3258   29.3068  -76.3603 H         1 UNK         0.0554 
     88 H88       -72.0061   30.1833  -78.2158 H         1 UNK         0.0847 
     89 H89       -70.6247   30.4875  -77.1609 H         1 UNK         0.0847 
     90 H90       -72.1077   31.4110  -76.9663 H         1 UNK         0.0847 
     91 H91       -71.2830   27.9979  -77.4666 H         1 UNK         0.3141 
     92 H92       -70.3870   25.9524  -77.2029 H         1 UNK         0.0743 
     93 H93       -69.9090   24.9638  -74.9587 H         1 UNK         0.0784 
     94 H94       -71.5164   24.2527  -74.9051 H         1 UNK         0.0784 
     95 H95       -70.3542   23.7168  -76.1150 H         1 UNK         0.0784 
     96 H96       -73.1267   24.8137  -76.7492 H         1 UNK         0.3213 
     97 H97       -73.9158   25.2391  -80.2361 H         1 UNK         0.0855 
     98 H98       -73.1568   22.8928  -79.7698 H         1 UNK         0.0814 
     99 H99       -74.9068   23.0354  -79.7514 H         1 UNK         0.0814 
    100 H100      -74.0167   22.9193  -78.2352 H         1 UNK         0.0814 
    101 H101      -75.6268   24.8080  -78.0168 H         1 UNK         0.3105 
    102 H102      -76.5055   28.2723  -77.5080 H         1 UNK         0.0547 
    103 H103      -77.8227   27.3666  -79.4127 H         1 UNK         0.0837 
    104 H104      -77.9231   25.7946  -78.6277 H         1 UNK         0.0837 
    105 H105      -78.7081   27.1927  -77.9035 H         1 UNK         0.0837 
    106 H106      -77.2741   25.7919  -76.2396 H         1 UNK         0.3020 
    107 H107      -74.9884   26.0680  -73.5562 H         1 UNK         0.1245 
    108 H108      -78.0381   26.3721  -73.4109 H         1 UNK         0.0781 
    109 H109      -76.9337   27.6295  -72.9266 H         1 UNK         0.0781 
    110 H110      -78.3129   25.9991  -69.4802 H         1 UNK         0.0836 
    111 H111      -79.2138   25.9229  -70.9747 H         1 UNK         0.0836 
    112 H112      -77.0975   24.2209  -74.0952 H         1 UNK         0.3022 
    113 H113      -75.1577   21.9475  -76.0654 H         1 UNK         0.0747 
    114 H114      -75.8942   20.4568  -74.2282 H         1 UNK         0.0793 
    115 H115      -74.6245   21.5276  -73.6604 H         1 UNK         0.0793 
    116 H116      -76.2955   21.8454  -73.2170 H         1 UNK         0.0793 
    117 H117      -77.8695   21.8783  -75.1571 H         1 UNK         0.3047 
    118 H118      -79.3172   23.4112  -78.0454 H         1 UNK         0.0822 
    119 H119      -80.5623   21.2764  -78.0129 H         1 UNK         0.0807 
    120 H120      -79.3787   20.5574  -76.9208 H         1 UNK         0.0807 
    121 H121      -78.9200   20.9919  -78.5615 H         1 UNK         0.0807 
    122 H122      -80.6267   22.4473  -75.7690 H         1 UNK         0.2946 
    123 H123      -81.7961   24.2308  -74.5815 H         1 UNK         0.1144 
    124 H124      -80.9729   24.0135  -72.1926 H         1 UNK         0.0793 
    125 H125      -79.3066   24.1002  -72.7582 H         1 UNK         0.0793 
    126 H126      -80.3214   22.7335  -73.1989 H         1 UNK         0.0793 
    127 H127      -80.0145   26.5025  -74.4435 H         1 UNK         0.2896 
@<TRIPOS>BOND
     1    1    2 1    
     2    1   67 1    
     3    1   68 1    
     4    1   69 1    
     5    2    3 2    
     6    2    4 am   BACKBONE|DICT|INTERRES
     7    4    5 1    
     8    4   70 1    
     9    5    6 1    
    10    5   65 1    
    11    5   71 1    
    12    6    7 1    
    13    6   72 1    
    14    6   73 1    
    15    7    8 1    
    16    8    9 1    
    17    8   74 1    
    18    8   75 1    
    19    9   10 ar   
    20    9   14 ar   
    21   10   11 ar   
    22   10   76 1    
    23   11   12 ar   
    24   11   48 1    
    25   12   13 ar   
    26   12   77 1    
    27   13   14 ar   
    28   13   15 1    
    29   14   78 1    
    30   15   16 1    
    31   15   79 1    
    32   15   80 1    
    33   16   17 1    
    34   17   18 1    
    35   17   81 1    
    36   17   82 1    
    37   18   19 1    
    38   18   22 1    
    39   18   83 1    
    40   19   20 am   BACKBONE|DICT|INTERRES
    41   19   21 2    
    42   20   84 1    
    43   20   85 1    
    44   22   23 am   BACKBONE|DICT|INTERRES
    45   22   86 1    
    46   23   24 2    
    47   23   25 1    
    48   25   26 1    
    49   25   27 1    
    50   25   87 1    
    51   26   88 1    
    52   26   89 1    
    53   26   90 1    
    54   27   28 am   BACKBONE|DICT|INTERRES
    55   27   91 1    
    56   28   29 2    
    57   28   30 1    
    58   30   31 1    
    59   30   32 1    
    60   30   92 1    
    61   31   93 1    
    62   31   94 1    
    63   31   95 1    
    64   32   33 am   BACKBONE|DICT|INTERRES
    65   32   96 1    
    66   33   34 2    
    67   33   35 1    
    68   35   36 1    
    69   35   37 1    
    70   35   97 1    
    71   36   98 1    
    72   36   99 1    
    73   36  100 1    
    74   37   38 am   BACKBONE|DICT|INTERRES
    75   37  101 1    
    76   38   39 2    
    77   38   40 1    
    78   40   41 1    
    79   40   42 1    
    80   40  102 1    
    81   41  103 1    
    82   41  104 1    
    83   41  105 1    
    84   42   43 am   BACKBONE|DICT|INTERRES
    85   42  106 1    
    86   43   44 2    
    87   43   45 1    
    88   45   46 1    
    89   45   49 1    
    90   45  107 1    
    91   46   47 1    
    92   46  108 1    
    93   46  109 1    
    94   47   48 1    
    95   48  110 1    
    96   48  111 1    
    97   49   50 am   BACKBONE|DICT|INTERRES
    98   49  112 1    
    99   50   51 2    
   100   50   52 1    
   101   52   53 1    
   102   52   54 1    
   103   52  113 1    
   104   53  114 1    
   105   53  115 1    
   106   53  116 1    
   107   54   55 am   BACKBONE|DICT|INTERRES
   108   54  117 1    
   109   55   56 2    
   110   55   57 1    
   111   57   58 1    
   112   57   59 1    
   113   57  118 1    
   114   58  119 1    
   115   58  120 1    
   116   58  121 1    
   117   59   60 am   BACKBONE|DICT|INTERRES
   118   59  122 1    
   119   60   61 2    
   120   60   62 1    
   121   62   63 1    
   122   62   64 1    
   123   62  123 1    
   124   63  124 1    
   125   63  125 1    
   126   63  126 1    
   127   64   65 am   BACKBONE|DICT|INTERRES
   128   64  127 1    
   129   65   66 2    
@<TRIPOS>SUBSTRUCTURE
     1 UNK         1 GROUP             0       ****    0 ROOT    
