@<TRIPOS>MOLECULE
3R135
127   129    1
SMALL
USER_CHARGES


@<TRIPOS>ATOM
      1 CA        -79.5806   24.0065  -71.1257 C.3       0 UNK        -0.1998 
      2 C         -79.9349   24.9652  -72.2515 C.2       0 UNK         0.4909 
      3 O         -79.2583   24.9812  -73.2802 O.2       0 UNK        -0.5240 
      4 N         -81.0085   25.7507  -72.0748 N.am      1 UNK        -0.4739 
      5 CA        -81.5442   26.7132  -73.0548 C.3       1 UNK         0.0864 
      6 C6        -80.5462   27.8757  -73.3493 C.3       11 UNK        -0.0881 
      7 S7        -81.2643   29.5304  -73.0696 S.3       11 UNK        -0.2682 
      8 C8        -80.8101   29.8692  -71.3332 C.3       11 UNK         0.0289 
      9 C9        -79.3025   29.9477  -71.1279 C.ar      11 UNK        -0.0687 
     10 C10       -78.6173   28.8699  -70.5611 C.ar      11 UNK        -0.0823 
     11 C11       -77.2275   28.9038  -70.4356 C.ar      11 UNK        -0.0830 
     12 C12       -76.5288   30.0520  -70.8160 C.ar      11 UNK        -0.1021 
     13 C13       -77.1967   31.1432  -71.3869 C.ar      11 UNK        -0.0753 
     14 C14       -78.5880   31.0807  -71.5312 C.ar      11 UNK        -0.0933 
     15 C15       -76.4687   32.3974  -71.8822 C.3       11 UNK         0.0166 
     16 S16       -74.6420   32.3067  -71.9600 S.3       11 UNK        -0.2615 
     17 C17       -74.3741   31.0830  -73.2911 C.3       11 UNK        -0.0865 
     18 CA        -72.9697   30.4217  -73.2324 C.3       10 UNK         0.0862 
     19 C         -72.8579   29.3634  -72.1014 C.2       10 UNK         0.5551 
     20 N         -72.5014   29.7816  -70.8951 N.am      10 UNK        -0.7319 
     21 O         -73.1096   28.1763  -72.2937 O.2       10 UNK        -0.5018 
     22 N         -72.6443   29.8201  -74.5297 N.am      10 UNK        -0.4509 
     23 C         -71.6395   30.1736  -75.3377 C.2       10 UNK         0.4899 
     24 O         -70.8461   31.0834  -75.0897 O.2       10 UNK        -0.4839 
     25 CA        -71.5216   29.3879  -76.6597 C.3       9 UNK         0.0222 
     26 CB        -70.2170   29.6812  -77.4315 C.3       9 UNK        -0.1966 
     27 N         -71.7257   27.9443  -76.4929 N.am      9 UNK        -0.4218 
     28 C         -70.9740   27.0827  -75.7893 C.2       9 UNK         0.5020 
     29 O         -69.9428   27.4013  -75.1950 O.2       9 UNK        -0.5274 
     30 CA        -71.4393   25.6119  -75.7190 C.3       8 UNK         0.0270 
     31 CB        -71.8328   25.2450  -74.2790 C.3       8 UNK        -0.1976 
     32 N         -72.5539   25.2904  -76.6178 N.am      8 UNK        -0.4313 
     33 C         -72.4461   25.1393  -77.9457 C.2       8 UNK         0.5041 
     34 O         -71.3768   25.1862  -78.5546 O.2       8 UNK        -0.5577 
     35 CA        -73.7542   24.9447  -78.7336 C.3       7 UNK         0.0284 
     36 CB        -74.1542   23.4611  -78.7704 C.3       7 UNK        -0.1958 
     37 N         -74.8653   25.7390  -78.2015 N.am      7 UNK        -0.4454 
     38 C         -74.9071   27.0794  -78.1765 C.2       7 UNK         0.5089 
     39 O         -74.0320   27.8025  -78.6513 O.2       7 UNK        -0.5125 
     40 CA        -76.0858   27.7199  -77.4241 C.3       6 UNK         0.0408 
     41 CB        -77.3600   27.7290  -78.2825 C.3       6 UNK        -0.1791 
     42 N         -76.3313   27.0544  -76.1403 N.am      6 UNK        -0.4762 
     43 C         -75.4744   27.1005  -75.1080 C.2       6 UNK         0.5007 
     44 O         -74.4413   27.7655  -75.1286 O.2       6 UNK        -0.5032 
     45 CA        -75.7929   26.2533  -73.8603 C.3       5 UNK         0.0783 
     46 C46       -76.4485   27.1312  -72.7766 C.3       11 UNK        -0.0857 
     47 S47       -76.6235   26.2872  -71.1660 S.3       11 UNK        -0.2512 
     48 C48       -76.4657   27.6674  -69.9773 C.3       11 UNK         0.0225 
     49 N         -76.5794   25.0609  -74.1946 N.am      5 UNK        -0.4615 
     50 C         -76.0758   24.0137  -74.8598 C.2       4 UNK         0.5053 
     51 O         -74.9031   23.9462  -75.2314 O.2       4 UNK        -0.5105 
     52 CA        -77.0515   22.8814  -75.2210 C.3       4 UNK         0.0263 
     53 CB        -77.4153   22.0429  -73.9854 C.3       4 UNK        -0.1981 
     54 N         -78.2716   23.3531  -75.8868 N.am      4 UNK        -0.4224 
     55 C         -78.2982   23.9981  -77.0603 C.2       3 UNK         0.4895 
     56 O         -77.2775   24.3146  -77.6710 O.2       3 UNK        -0.5091 
     57 CA        -79.6563   24.3776  -77.6842 C.3       3 UNK         0.0250 
     58 CB        -79.9536   23.4928  -78.9108 C.3       3 UNK        -0.1996 
     59 N         -80.8159   24.4290  -76.7823 N.am      3 UNK        -0.4254 
     60 C         -81.4296   23.4359  -76.1257 C.2       2 UNK         0.5004 
     61 O         -81.0133   22.2774  -76.0883 O.2       2 UNK        -0.5226 
     62 CA        -82.7059   23.8277  -75.3526 C.3       2 UNK         0.0269 
     63 CB        -83.4646   22.6039  -74.8060 C.3       2 UNK        -0.1926 
     64 N         -82.3904   24.7219  -74.2383 N.am      2 UNK        -0.4687 
     65 C         -82.0723   26.0214  -74.3381 C.2       1 UNK         0.5165 
     66 O         -82.1562   26.6467  -75.3976 O.2       1 UNK        -0.5079 
     67 H67       -80.0594   24.2882  -70.1882 H         1 UNK         0.0900 
     68 H68       -79.8949   22.9956  -71.3831 H         1 UNK         0.0900 
     69 H69       -78.5038   23.9941  -70.9629 H         1 UNK         0.0900 
     70 H70       -81.5294   25.6825  -71.2107 H         1 UNK         0.2959 
     71 H71       -82.4355   27.1291  -72.5823 H         1 UNK         0.1079 
     72 H72       -80.1585   27.8418  -74.3690 H         1 UNK         0.0837 
     73 H73       -79.6556   27.7790  -72.7351 H         1 UNK         0.0837 
     74 H74       -81.2650   30.8126  -71.0281 H         1 UNK         0.0685 
     75 H75       -81.2466   29.1002  -70.6938 H         1 UNK         0.0685 
     76 H76       -79.1564   27.9771  -70.2746 H         1 UNK         0.1434 
     77 H77       -75.4551   30.0655  -70.7025 H         1 UNK         0.1329 
     78 H78       -79.1187   31.9098  -71.9794 H         1 UNK         0.1335 
     79 H79       -76.7363   33.2267  -71.2261 H         1 UNK         0.0680 
     80 H80       -76.8385   32.6592  -72.8749 H         1 UNK         0.0680 
     81 H81       -74.4906   31.6176  -74.2352 H         1 UNK         0.1032 
     82 H82       -75.1604   30.3265  -73.2851 H         1 UNK         0.1032 
     83 H83       -72.2381   31.2027  -73.0159 H         1 UNK         0.0461 
     84 H84       -72.4224   29.1113  -70.1472 H         1 UNK         0.3453 
     85 H85       -72.3194   30.7574  -70.7188 H         1 UNK         0.3453 
     86 H86       -73.2194   29.0150  -74.7795 H         1 UNK         0.2984 
     87 H87       -72.3488   29.7308  -77.2828 H         1 UNK         0.0554 
     88 H88       -70.1397   30.7407  -77.6786 H         1 UNK         0.0847 
     89 H89       -70.1785   29.1275  -78.3695 H         1 UNK         0.0847 
     90 H90       -69.3324   29.4195  -76.8502 H         1 UNK         0.0847 
     91 H91       -72.5664   27.5822  -76.9257 H         1 UNK         0.3141 
     92 H92       -70.5878   24.9901  -76.0034 H         1 UNK         0.0743 
     93 H93       -70.9767   25.3304  -73.6085 H         1 UNK         0.0784 
     94 H94       -72.6049   25.9110  -73.8960 H         1 UNK         0.0784 
     95 H95       -72.1998   24.2208  -74.2088 H         1 UNK         0.0784 
     96 H96       -73.4640   25.1522  -76.1902 H         1 UNK         0.3213 
     97 H97       -73.5733   25.2749  -79.7588 H         1 UNK         0.0855 
     98 H98       -74.3755   23.0769  -77.7741 H         1 UNK         0.0814 
     99 H99       -73.3521   22.8501  -79.1865 H         1 UNK         0.0814 
    100 H100      -75.0372   23.3046  -79.3903 H         1 UNK         0.0814 
    101 H101      -75.6605   25.2212  -77.8307 H         1 UNK         0.3105 
    102 H102      -75.8229   28.7589  -77.2130 H         1 UNK         0.0547 
    103 H103      -77.2157   28.3400  -79.1744 H         1 UNK         0.0837 
    104 H104      -78.2070   28.1471  -77.7385 H         1 UNK         0.0837 
    105 H105      -77.6335   26.7314  -78.6227 H         1 UNK         0.0837 
    106 H106      -77.1416   26.4564  -76.0702 H         1 UNK         0.3020 
    107 H107      -74.8357   25.9149  -73.4601 H         1 UNK         0.1245 
    108 H108      -77.4290   27.4779  -73.1028 H         1 UNK         0.0781 
    109 H109      -75.8416   28.0242  -72.6225 H         1 UNK         0.0781 
    110 H110      -75.4060   27.8925  -69.8459 H         1 UNK         0.0836 
    111 H111      -76.8370   27.3478  -69.0027 H         1 UNK         0.0836 
    112 H112      -77.5552   25.0462  -73.8973 H         1 UNK         0.3022 
    113 H113      -76.5354   22.2262  -75.9261 H         1 UNK         0.0747 
    114 H114      -76.5182   21.6593  -73.4974 H         1 UNK         0.0793 
    115 H115      -77.9635   22.6252  -73.2458 H         1 UNK         0.0793 
    116 H116      -78.0292   21.1839  -74.2567 H         1 UNK         0.0793 
    117 H117      -79.1580   23.1050  -75.4649 H         1 UNK         0.3047 
    118 H118      -79.5394   25.3995  -78.0461 H         1 UNK         0.0822 
    119 H119      -80.8609   23.8140  -79.4223 H         1 UNK         0.0807 
    120 H120      -80.0754   22.4445  -78.6360 H         1 UNK         0.0807 
    121 H121      -79.1396   23.5436  -79.6354 H         1 UNK         0.0807 
    122 H122      -81.2121   25.3548  -76.6479 H         1 UNK         0.2946 
    123 H123      -83.3662   24.3471  -76.0513 H         1 UNK         0.1144 
    124 H124      -82.8670   22.0444  -74.0850 H         1 UNK         0.0793 
    125 H125      -83.7299   21.9180  -75.6117 H         1 UNK         0.0793 
    126 H126      -84.3924   22.8990  -74.3156 H         1 UNK         0.0793 
    127 H127      -82.2648   24.2843  -73.3371 H         1 UNK         0.2896 
@<TRIPOS>BOND
     1    1    2 1    
     2    1   67 1    
     3    1   68 1    
     4    1   69 1    
     5    2    3 2    
     6    2    4 am   BACKBONE|DICT|INTERRES
     7    4    5 1    
     8    4   70 1    
     9    5    6 1    
    10    5   65 1    
    11    5   71 1    
    12    6    7 1    
    13    6   72 1    
    14    6   73 1    
    15    7    8 1    
    16    8    9 1    
    17    8   74 1    
    18    8   75 1    
    19    9   10 ar   
    20    9   14 ar   
    21   10   11 ar   
    22   10   76 1    
    23   11   12 ar   
    24   11   48 1    
    25   12   13 ar   
    26   12   77 1    
    27   13   14 ar   
    28   13   15 1    
    29   14   78 1    
    30   15   16 1    
    31   15   79 1    
    32   15   80 1    
    33   16   17 1    
    34   17   18 1    
    35   17   81 1    
    36   17   82 1    
    37   18   19 1    
    38   18   22 1    
    39   18   83 1    
    40   19   20 am   BACKBONE|DICT|INTERRES
    41   19   21 2    
    42   20   84 1    
    43   20   85 1    
    44   22   23 am   BACKBONE|DICT|INTERRES
    45   22   86 1    
    46   23   24 2    
    47   23   25 1    
    48   25   26 1    
    49   25   27 1    
    50   25   87 1    
    51   26   88 1    
    52   26   89 1    
    53   26   90 1    
    54   27   28 am   BACKBONE|DICT|INTERRES
    55   27   91 1    
    56   28   29 2    
    57   28   30 1    
    58   30   31 1    
    59   30   32 1    
    60   30   92 1    
    61   31   93 1    
    62   31   94 1    
    63   31   95 1    
    64   32   33 am   BACKBONE|DICT|INTERRES
    65   32   96 1    
    66   33   34 2    
    67   33   35 1    
    68   35   36 1    
    69   35   37 1    
    70   35   97 1    
    71   36   98 1    
    72   36   99 1    
    73   36  100 1    
    74   37   38 am   BACKBONE|DICT|INTERRES
    75   37  101 1    
    76   38   39 2    
    77   38   40 1    
    78   40   41 1    
    79   40   42 1    
    80   40  102 1    
    81   41  103 1    
    82   41  104 1    
    83   41  105 1    
    84   42   43 am   BACKBONE|DICT|INTERRES
    85   42  106 1    
    86   43   44 2    
    87   43   45 1    
    88   45   46 1    
    89   45   49 1    
    90   45  107 1    
    91   46   47 1    
    92   46  108 1    
    93   46  109 1    
    94   47   48 1    
    95   48  110 1    
    96   48  111 1    
    97   49   50 am   BACKBONE|DICT|INTERRES
    98   49  112 1    
    99   50   51 2    
   100   50   52 1    
   101   52   53 1    
   102   52   54 1    
   103   52  113 1    
   104   53  114 1    
   105   53  115 1    
   106   53  116 1    
   107   54   55 am   BACKBONE|DICT|INTERRES
   108   54  117 1    
   109   55   56 2    
   110   55   57 1    
   111   57   58 1    
   112   57   59 1    
   113   57  118 1    
   114   58  119 1    
   115   58  120 1    
   116   58  121 1    
   117   59   60 am   BACKBONE|DICT|INTERRES
   118   59  122 1    
   119   60   61 2    
   120   60   62 1    
   121   62   63 1    
   122   62   64 1    
   123   62  123 1    
   124   63  124 1    
   125   63  125 1    
   126   63  126 1    
   127   64   65 am   BACKBONE|DICT|INTERRES
   128   64  127 1    
   129   65   66 2    
@<TRIPOS>SUBSTRUCTURE
     1 UNK         1 GROUP             0       ****    0 ROOT    
