@<TRIPOS>MOLECULE
3R135
127   129    1
SMALL
USER_CHARGES


@<TRIPOS>ATOM
      1 CA        -80.9846   25.4265  -70.6120 C.3       0 UNK        -0.1998 
      2 C         -82.0559   26.0868  -71.4658 C.2       0 UNK         0.4909 
      3 O         -83.2098   25.6586  -71.4379 O.2       0 UNK        -0.5240 
      4 N         -81.6838   27.1233  -72.2292 N.am      1 UNK        -0.4739 
      5 CA        -82.5644   27.8203  -73.1767 C.3       1 UNK         0.0864 
      6 C6        -82.0561   29.2496  -73.5028 C.3       11 UNK        -0.0881 
      7 S7        -80.3195   29.3110  -74.0747 S.3       11 UNK        -0.2682 
      8 C8        -79.4620   30.0705  -72.6576 C.3       11 UNK         0.0289 
      9 C9        -78.1654   29.3352  -72.3601 C.ar      11 UNK        -0.0687 
     10 C10       -78.1446   28.3125  -71.4073 C.ar      11 UNK        -0.0823 
     11 C11       -76.9684   27.6022  -71.1530 C.ar      11 UNK        -0.0830 
     12 C12       -75.8030   27.9382  -71.8464 C.ar      11 UNK        -0.1021 
     13 C13       -75.8061   28.9660  -72.7939 C.ar      11 UNK        -0.0753 
     14 C14       -76.9916   29.6638  -73.0456 C.ar      11 UNK        -0.0933 
     15 C15       -74.5461   29.2674  -73.5919 C.3       11 UNK         0.0166 
     16 S16       -73.1234   29.6633  -72.5237 S.3       11 UNK        -0.2615 
     17 C17       -72.9182   31.4650  -72.7562 C.3       11 UNK        -0.0865 
     18 CA        -72.4973   31.9046  -74.1933 C.3       10 UNK         0.0862 
     19 C         -72.1803   33.4280  -74.2807 C.2       10 UNK         0.5551 
     20 N         -71.2550   33.8617  -75.1278 N.am      10 UNK        -0.7319 
     21 O         -72.8032   34.2348  -73.5940 O.2       10 UNK        -0.5018 
     22 N         -71.4993   31.0180  -74.8172 N.am      10 UNK        -0.4509 
     23 C         -70.2484   30.7840  -74.4083 C.2       10 UNK         0.4899 
     24 O         -69.7193   31.3434  -73.4463 O.2       10 UNK        -0.4839 
     25 CA        -69.4721   29.7234  -75.2179 C.3       9 UNK         0.0222 
     26 CB        -67.9707   29.7060  -74.8740 C.3       9 UNK        -0.1966 
     27 N         -70.0139   28.3690  -75.0466 N.am      9 UNK        -0.4218 
     28 C         -71.1750   27.9140  -75.5398 C.2       9 UNK         0.5020 
     29 O         -71.9502   28.6089  -76.2031 O.2       9 UNK        -0.5274 
     30 CA        -71.5146   26.4414  -75.2283 C.3       8 UNK         0.0270 
     31 CB        -71.8128   26.2388  -73.7322 C.3       8 UNK        -0.1976 
     32 N         -72.6555   25.9529  -76.0098 N.am      8 UNK        -0.4313 
     33 C         -72.6244   25.7038  -77.3285 C.2       8 UNK         0.5041 
     34 O         -71.5928   25.7526  -78.0019 O.2       8 UNK        -0.5577 
     35 CA        -73.9447   25.3193  -78.0301 C.3       7 UNK         0.0284 
     36 CB        -73.9558   23.8200  -78.3705 C.3       7 UNK        -0.1958 
     37 N         -75.1474   25.6452  -77.2591 N.am      7 UNK        -0.4454 
     38 C         -75.5889   26.8870  -77.0146 C.2       7 UNK         0.5089 
     39 O         -75.1090   27.8928  -77.5368 O.2       7 UNK        -0.5125 
     40 CA        -76.7449   27.0521  -76.0082 C.3       6 UNK         0.0408 
     41 CB        -78.0232   27.5215  -76.7192 C.3       6 UNK        -0.1791 
     42 N         -77.0448   25.8700  -75.1888 N.am      6 UNK        -0.4762 
     43 C         -76.2083   25.3042  -74.3024 C.2       6 UNK         0.5007 
     44 O         -75.0339   25.6498  -74.1709 O.2       6 UNK        -0.5032 
     45 CA        -76.7424   24.1209  -73.4728 C.3       5 UNK         0.0783 
     46 C46       -77.5087   24.5796  -72.2049 C.3       11 UNK        -0.0857 
     47 S47       -76.3734   24.8871  -70.8077 S.3       11 UNK        -0.2512 
     48 C48       -76.9599   26.4754  -70.1280 C.3       11 UNK         0.0225 
     49 N         -77.5598   23.2403  -74.3105 N.am      5 UNK        -0.4615 
     50 C         -77.2533   21.9684  -74.6018 C.2       4 UNK         0.5053 
     51 O         -76.2849   21.3704  -74.1317 O.2       4 UNK        -0.5105 
     52 CA        -78.1694   21.2238  -75.5932 C.3       4 UNK         0.0263 
     53 CB        -79.2011   20.3753  -74.8324 C.3       4 UNK        -0.1981 
     54 N         -78.8718   22.0996  -76.5343 N.am      4 UNK        -0.4224 
     55 C         -78.2840   22.9168  -77.4196 C.2       3 UNK         0.4895 
     56 O         -77.0675   22.9808  -77.5914 O.2       3 UNK        -0.5091 
     57 CA        -79.2005   23.8580  -78.2207 C.3       3 UNK         0.0250 
     58 CB        -79.5204   23.2430  -79.5925 C.3       3 UNK        -0.1996 
     59 N         -80.4577   24.2391  -77.5579 N.am      3 UNK        -0.4254 
     60 C         -80.5920   24.7624  -76.3301 C.2       2 UNK         0.5004 
     61 O         -79.6603   24.9120  -75.5318 O.2       2 UNK        -0.5226 
     62 CA        -82.0157   25.1407  -75.9109 C.3       2 UNK         0.0269 
     63 CB        -82.8264   23.8898  -75.5260 C.3       2 UNK        -0.1926 
     64 N         -81.9430   26.0429  -74.7672 N.am      2 UNK        -0.4687 
     65 C         -82.8328   26.9929  -74.4550 C.2       1 UNK         0.5165 
     66 O         -83.8447   27.2204  -75.1205 O.2       1 UNK        -0.5079 
     67 H67       -79.9914   25.8038  -70.8452 H         1 UNK         0.0900 
     68 H68       -80.9815   24.3497  -70.7797 H         1 UNK         0.0900 
     69 H69       -81.1808   25.6071  -69.5555 H         1 UNK         0.0900 
     70 H70       -80.7240   27.4358  -72.2339 H         1 UNK         0.2959 
     71 H71       -83.5383   27.9341  -72.6947 H         1 UNK         0.1079 
     72 H72       -82.6834   29.7129  -74.2671 H         1 UNK         0.0837 
     73 H73       -82.1753   29.8837  -72.6236 H         1 UNK         0.0837 
     74 H74       -79.2595   31.1190  -72.8815 H         1 UNK         0.0685 
     75 H75       -80.0961   30.0652  -71.7702 H         1 UNK         0.0685 
     76 H76       -79.0475   28.0683  -70.8662 H         1 UNK         0.1434 
     77 H77       -74.8930   27.3819  -71.6660 H         1 UNK         0.1329 
     78 H78       -77.0106   30.4461  -73.7920 H         1 UNK         0.1335 
     79 H79       -74.2954   28.3895  -74.1882 H         1 UNK         0.0680 
     80 H80       -74.7253   30.0691  -74.3070 H         1 UNK         0.0680 
     81 H81       -72.1687   31.7968  -72.0355 H         1 UNK         0.1032 
     82 H82       -73.8485   31.9573  -72.4668 H         1 UNK         0.1032 
     83 H83       -73.3767   31.7961  -74.8269 H         1 UNK         0.0461 
     84 H84       -70.7462   33.2081  -75.7011 H         1 UNK         0.3453 
     85 H85       -71.0607   34.8488  -75.1884 H         1 UNK         0.3453 
     86 H86       -71.8451   30.4282  -75.5693 H         1 UNK         0.2984 
     87 H87       -69.5627   29.9932  -76.2722 H         1 UNK         0.0554 
     88 H88       -67.4234   29.0147  -75.5150 H         1 UNK         0.0847 
     89 H89       -67.7951   29.4147  -73.8376 H         1 UNK         0.0847 
     90 H90       -67.5270   30.6928  -75.0139 H         1 UNK         0.0847 
     91 H91       -69.4572   27.7396  -74.4865 H         1 UNK         0.3141 
     92 H92       -70.6430   25.8376  -75.4893 H         1 UNK         0.0743 
     93 H93       -72.6811   26.8133  -73.4115 H         1 UNK         0.0784 
     94 H94       -72.0118   25.1907  -73.5079 H         1 UNK         0.0784 
     95 H95       -70.9725   26.5466  -73.1093 H         1 UNK         0.0784 
     96 H96       -73.5448   25.9013  -75.5218 H         1 UNK         0.3213 
     97 H97       -73.9828   25.8806  -78.9661 H         1 UNK         0.0855 
     98 H98       -73.9855   23.2019  -77.4723 H         1 UNK         0.0814 
     99 H99       -73.0650   23.5374  -78.9333 H         1 UNK         0.0814 
    100 H100      -74.8178   23.5609  -78.9854 H         1 UNK         0.0814 
    101 H101      -75.6337   24.8723  -76.8244 H         1 UNK         0.3105 
    102 H102      -76.4480   27.8432  -75.3202 H         1 UNK         0.0547 
    103 H103      -77.8620   28.4775  -77.2187 H         1 UNK         0.0837 
    104 H104      -78.3509   26.8122  -77.4763 H         1 UNK         0.0837 
    105 H105      -78.8420   27.6603  -76.0146 H         1 UNK         0.0837 
    106 H106      -77.9979   25.5188  -75.2599 H         1 UNK         0.3020 
    107 H107      -75.8562   23.5707  -73.1473 H         1 UNK         0.1245 
    108 H108      -78.1944   23.7965  -71.8775 H         1 UNK         0.0781 
    109 H109      -78.1332   25.4504  -72.4100 H         1 UNK         0.0781 
    110 H110      -76.3086   26.7615  -69.3011 H         1 UNK         0.0836 
    111 H111      -77.9500   26.3285  -69.6954 H         1 UNK         0.0836 
    112 H112      -78.3706   23.6620  -74.7528 H         1 UNK         0.3022 
    113 H113      -77.5364   20.5538  -76.1788 H         1 UNK         0.0747 
    114 H114      -79.7984   19.7693  -75.5139 H         1 UNK         0.0793 
    115 H115      -78.7091   19.6903  -74.1403 H         1 UNK         0.0793 
    116 H116      -79.8817   20.9959  -74.2478 H         1 UNK         0.0793 
    117 H117      -79.8785   22.1226  -76.4672 H         1 UNK         0.3047 
    118 H118      -78.6336   24.7731  -78.3923 H         1 UNK         0.0822 
    119 H119      -80.0591   23.9458  -80.2284 H         1 UNK         0.0807 
    120 H120      -80.1255   22.3403  -79.4993 H         1 UNK         0.0807 
    121 H121      -78.6060   22.9690  -80.1214 H         1 UNK         0.0807 
    122 H122      -81.2915   24.1356  -78.1190 H         1 UNK         0.2946 
    123 H123      -82.4953   25.6525  -76.7487 H         1 UNK         0.1144 
    124 H124      -83.8416   24.1528  -75.2283 H         1 UNK         0.0793 
    125 H125      -82.3658   23.3523  -74.6958 H         1 UNK         0.0793 
    126 H126      -82.9074   23.1951  -76.3629 H         1 UNK         0.0793 
    127 H127      -81.0989   25.9559  -74.2164 H         1 UNK         0.2896 
@<TRIPOS>BOND
     1    1    2 1    
     2    1   67 1    
     3    1   68 1    
     4    1   69 1    
     5    2    3 2    
     6    2    4 am   BACKBONE|DICT|INTERRES
     7    4    5 1    
     8    4   70 1    
     9    5    6 1    
    10    5   65 1    
    11    5   71 1    
    12    6    7 1    
    13    6   72 1    
    14    6   73 1    
    15    7    8 1    
    16    8    9 1    
    17    8   74 1    
    18    8   75 1    
    19    9   10 ar   
    20    9   14 ar   
    21   10   11 ar   
    22   10   76 1    
    23   11   12 ar   
    24   11   48 1    
    25   12   13 ar   
    26   12   77 1    
    27   13   14 ar   
    28   13   15 1    
    29   14   78 1    
    30   15   16 1    
    31   15   79 1    
    32   15   80 1    
    33   16   17 1    
    34   17   18 1    
    35   17   81 1    
    36   17   82 1    
    37   18   19 1    
    38   18   22 1    
    39   18   83 1    
    40   19   20 am   BACKBONE|DICT|INTERRES
    41   19   21 2    
    42   20   84 1    
    43   20   85 1    
    44   22   23 am   BACKBONE|DICT|INTERRES
    45   22   86 1    
    46   23   24 2    
    47   23   25 1    
    48   25   26 1    
    49   25   27 1    
    50   25   87 1    
    51   26   88 1    
    52   26   89 1    
    53   26   90 1    
    54   27   28 am   BACKBONE|DICT|INTERRES
    55   27   91 1    
    56   28   29 2    
    57   28   30 1    
    58   30   31 1    
    59   30   32 1    
    60   30   92 1    
    61   31   93 1    
    62   31   94 1    
    63   31   95 1    
    64   32   33 am   BACKBONE|DICT|INTERRES
    65   32   96 1    
    66   33   34 2    
    67   33   35 1    
    68   35   36 1    
    69   35   37 1    
    70   35   97 1    
    71   36   98 1    
    72   36   99 1    
    73   36  100 1    
    74   37   38 am   BACKBONE|DICT|INTERRES
    75   37  101 1    
    76   38   39 2    
    77   38   40 1    
    78   40   41 1    
    79   40   42 1    
    80   40  102 1    
    81   41  103 1    
    82   41  104 1    
    83   41  105 1    
    84   42   43 am   BACKBONE|DICT|INTERRES
    85   42  106 1    
    86   43   44 2    
    87   43   45 1    
    88   45   46 1    
    89   45   49 1    
    90   45  107 1    
    91   46   47 1    
    92   46  108 1    
    93   46  109 1    
    94   47   48 1    
    95   48  110 1    
    96   48  111 1    
    97   49   50 am   BACKBONE|DICT|INTERRES
    98   49  112 1    
    99   50   51 2    
   100   50   52 1    
   101   52   53 1    
   102   52   54 1    
   103   52  113 1    
   104   53  114 1    
   105   53  115 1    
   106   53  116 1    
   107   54   55 am   BACKBONE|DICT|INTERRES
   108   54  117 1    
   109   55   56 2    
   110   55   57 1    
   111   57   58 1    
   112   57   59 1    
   113   57  118 1    
   114   58  119 1    
   115   58  120 1    
   116   58  121 1    
   117   59   60 am   BACKBONE|DICT|INTERRES
   118   59  122 1    
   119   60   61 2    
   120   60   62 1    
   121   62   63 1    
   122   62   64 1    
   123   62  123 1    
   124   63  124 1    
   125   63  125 1    
   126   63  126 1    
   127   64   65 am   BACKBONE|DICT|INTERRES
   128   64  127 1    
   129   65   66 2    
@<TRIPOS>SUBSTRUCTURE
     1 UNK         1 GROUP             0       ****    0 ROOT    
