@<TRIPOS>MOLECULE
3R135
127   129    1
SMALL
USER_CHARGES


@<TRIPOS>ATOM
      1 CA        -83.8752   24.2921  -72.2041 C.3       0 UNK        -0.1998 
      2 C         -82.4480   24.1480  -71.6818 C.2       0 UNK         0.4909 
      3 O         -82.1221   23.1192  -71.0932 O.2       0 UNK        -0.5240 
      4 N         -81.5613   25.1375  -71.8658 N.am      1 UNK        -0.4739 
      5 CA        -81.7841   26.4185  -72.5584 C.3       1 UNK         0.0864 
      6 C6        -80.7429   27.4873  -72.1408 C.3       11 UNK        -0.0881 
      7 S7        -80.6566   27.7388  -70.3325 S.3       11 UNK        -0.2682 
      8 C8        -80.4423   29.5442  -70.2039 C.3       11 UNK         0.0289 
      9 C9        -79.1926   30.0171  -70.9328 C.ar      11 UNK        -0.0687 
     10 C10       -79.3038   30.6880  -72.1536 C.ar      11 UNK        -0.0823 
     11 C11       -78.1620   31.0789  -72.8586 C.ar      11 UNK        -0.0830 
     12 C12       -76.8986   30.8123  -72.3205 C.ar      11 UNK        -0.1021 
     13 C13       -76.7754   30.1384  -71.1014 C.ar      11 UNK        -0.0753 
     14 C14       -77.9254   29.7548  -70.4051 C.ar      11 UNK        -0.0933 
     15 C15       -75.4023   29.7605  -70.5723 C.3       11 UNK         0.0166 
     16 S16       -75.0189   28.0612  -71.0809 S.3       11 UNK        -0.2615 
     17 C17       -73.2498   27.8972  -70.6815 C.3       11 UNK        -0.0865 
     18 CA        -72.2875   28.6462  -71.6452 C.3       10 UNK         0.0862 
     19 C         -70.8063   28.3346  -71.2700 C.2       10 UNK         0.5551 
     20 N         -70.0092   27.7089  -72.1291 N.am      10 UNK        -0.7319 
     21 O         -70.3728   28.6706  -70.1705 O.2       10 UNK        -0.5018 
     22 N         -72.6216   28.4557  -73.0695 N.am      10 UNK        -0.4509 
     23 C         -72.1301   29.2130  -74.0608 C.2       10 UNK         0.4899 
     24 O         -71.4194   30.2018  -73.8696 O.2       10 UNK        -0.4839 
     25 CA        -72.4796   28.7970  -75.5046 C.3       9 UNK         0.0222 
     26 CB        -71.5466   29.4378  -76.5530 C.3       9 UNK        -0.1966 
     27 N         -72.5456   27.3449  -75.7158 N.am      9 UNK        -0.4218 
     28 C         -71.6048   26.4301  -75.4366 C.2       9 UNK         0.5020 
     29 O         -70.5192   26.6942  -74.9165 O.2       9 UNK        -0.5274 
     30 CA        -71.9274   24.9642  -75.7791 C.3       8 UNK         0.0270 
     31 CB        -72.3832   24.1979  -74.5281 C.3       8 UNK        -0.1976 
     32 N         -72.9249   24.8088  -76.8461 N.am      8 UNK        -0.4313 
     33 C         -72.6451   24.9748  -78.1471 C.2       8 UNK         0.5041 
     34 O         -71.5442   25.3333  -78.5675 O.2       8 UNK        -0.5577 
     35 CA        -73.7650   24.6848  -79.1533 C.3       7 UNK         0.0284 
     36 CB        -74.0788   23.1793  -79.2216 C.3       7 UNK        -0.1958 
     37 N         -74.9807   25.4344  -78.8300 N.am      7 UNK        -0.4454 
     38 C         -75.5584   26.3214  -79.6509 C.2       7 UNK         0.5089 
     39 O         -75.1197   26.6115  -80.7650 O.2       7 UNK        -0.5125 
     40 CA        -76.8559   26.9997  -79.1784 C.3       6 UNK         0.0408 
     41 CB        -78.0867   26.2543  -79.7183 C.3       6 UNK        -0.1791 
     42 N         -76.9796   27.1604  -77.7275 N.am      6 UNK        -0.4762 
     43 C         -76.2548   28.0260  -77.0032 C.2       6 UNK         0.5007 
     44 O         -75.2922   28.6466  -77.4525 O.2       6 UNK        -0.5032 
     45 CA        -76.6895   28.2478  -75.5419 C.3       5 UNK         0.0783 
     46 C46       -77.9109   29.2000  -75.4560 C.3       11 UNK        -0.0857 
     47 S47       -77.3828   30.9485  -75.5563 S.3       11 UNK        -0.2512 
     48 C48       -78.3108   31.7647  -74.2120 C.3       11 UNK         0.0225 
     49 N         -76.9407   26.9650  -74.8863 N.am      5 UNK        -0.4615 
     50 C         -76.0111   26.2874  -74.1999 C.2       4 UNK         0.5053 
     51 O         -74.8648   26.6924  -74.0172 O.2       4 UNK        -0.5105 
     52 CA        -76.4019   24.8904  -73.6837 C.3       4 UNK         0.0263 
     53 CB        -77.2002   24.9953  -72.3748 C.3       4 UNK        -0.1981 
     54 N         -77.1668   24.1143  -74.6607 N.am      4 UNK        -0.4224 
     55 C         -76.7712   23.8453  -75.9128 C.2       3 UNK         0.4895 
     56 O         -75.6599   24.1355  -76.3585 O.2       3 UNK        -0.5091 
     57 CA        -77.8074   23.1996  -76.8493 C.3       3 UNK         0.0250 
     58 CB        -77.6063   21.6773  -76.8937 C.3       3 UNK        -0.1996 
     59 N         -79.2101   23.4987  -76.5211 N.am      3 UNK        -0.4254 
     60 C         -79.7561   24.7189  -76.3908 C.2       2 UNK         0.5004 
     61 O         -79.1186   25.7684  -76.4949 O.2       2 UNK        -0.5226 
     62 CA        -81.2450   24.7920  -76.0268 C.3       2 UNK         0.0269 
     63 CB        -82.0266   23.4908  -76.3039 C.3       2 UNK        -0.1926 
     64 N         -81.3479   25.1174  -74.6057 N.am      2 UNK        -0.4687 
     65 C         -81.8005   26.2718  -74.0980 C.2       1 UNK         0.5165 
     66 O         -82.2284   27.1995  -74.7852 O.2       1 UNK        -0.5079 
     67 H67       -83.8923   24.3724  -73.2902 H         1 UNK         0.0900 
     68 H68       -84.4690   23.4201  -71.9304 H         1 UNK         0.0900 
     69 H69       -84.3630   25.1669  -71.7753 H         1 UNK         0.0900 
     70 H70       -80.6410   25.0298  -71.4640 H         1 UNK         0.2959 
     71 H71       -82.7659   26.7994  -72.2711 H         1 UNK         0.1079 
     72 H72       -79.7442   27.2272  -72.4950 H         1 UNK         0.0837 
     73 H73       -80.9905   28.4386  -72.6149 H         1 UNK         0.0837 
     74 H74       -81.3328   30.0407  -70.5928 H         1 UNK         0.0685 
     75 H75       -80.3736   29.8192  -69.1504 H         1 UNK         0.0685 
     76 H76       -80.2837   30.8850  -72.5668 H         1 UNK         0.1434 
     77 H77       -76.0112   31.0950  -72.8705 H         1 UNK         0.1329 
     78 H78       -77.8343   29.2141  -69.4729 H         1 UNK         0.1335 
     79 H79       -74.6469   30.4456  -70.9591 H         1 UNK         0.0680 
     80 H80       -75.3749   29.8368  -69.4844 H         1 UNK         0.0680 
     81 H81       -73.0958   28.2302  -69.6532 H         1 UNK         0.1032 
     82 H82       -73.0225   26.8294  -70.6869 H         1 UNK         0.1032 
     83 H83       -72.4143   29.7116  -71.4461 H         1 UNK         0.0461 
     84 H84       -70.3384   27.4390  -73.0502 H         1 UNK         0.3453 
     85 H85       -69.0555   27.5201  -71.8658 H         1 UNK         0.3453 
     86 H86       -73.2566   27.6955  -73.2955 H         1 UNK         0.2984 
     87 H87       -73.4835   29.1809  -75.6792 H         1 UNK         0.0554 
     88 H88       -71.5754   30.5264  -76.4943 H         1 UNK         0.0847 
     89 H89       -71.8434   29.1630  -77.5653 H         1 UNK         0.0847 
     90 H90       -70.5103   29.1291  -76.4110 H         1 UNK         0.0847 
     91 H91       -73.4246   27.0012  -76.0752 H         1 UNK         0.3141 
     92 H92       -70.9958   24.5060  -76.1190 H         1 UNK         0.0743 
     93 H93       -73.2973   24.6146  -74.1116 H         1 UNK         0.0784 
     94 H94       -72.5624   23.1455  -74.7482 H         1 UNK         0.0784 
     95 H95       -71.6232   24.2419  -73.7467 H         1 UNK         0.0784 
     96 H96       -73.8585   24.5034  -76.5755 H         1 UNK         0.3213 
     97 H97       -73.3858   24.9793  -80.1343 H         1 UNK         0.0855 
     98 H98       -74.4527   22.7902  -78.2747 H         1 UNK         0.0814 
     99 H99       -73.1854   22.6078  -79.4767 H         1 UNK         0.0814 
    100 H100      -74.8266   22.9678  -79.9860 H         1 UNK         0.0814 
    101 H101      -75.4003   25.2481  -77.9247 H         1 UNK         0.3105 
    102 H102      -76.8658   28.0008  -79.6152 H         1 UNK         0.0547 
    103 H103      -78.0496   26.1770  -80.8058 H         1 UNK         0.0837 
    104 H104      -78.1558   25.2419  -79.3243 H         1 UNK         0.0837 
    105 H105      -79.0097   26.7754  -79.4634 H         1 UNK         0.0837 
    106 H106      -77.7570   26.6767  -77.2804 H         1 UNK         0.3020 
    107 H107      -75.8567   28.7331  -75.0266 H         1 UNK         0.1245 
    108 H108      -78.4361   29.0384  -74.5145 H         1 UNK         0.0781 
    109 H109      -78.6479   28.9955  -76.2354 H         1 UNK         0.0781 
    110 H110      -79.3602   31.8179  -74.5061 H         1 UNK         0.0836 
    111 H111      -77.9665   32.7959  -74.1236 H         1 UNK         0.0836 
    112 H112      -77.8307   26.5231  -75.0853 H         1 UNK         0.3022 
    113 H113      -75.4835   24.3402  -73.4759 H         1 UNK         0.0747 
    114 H114      -77.3976   24.0110  -71.9499 H         1 UNK         0.0793 
    115 H115      -76.6478   25.5633  -71.6255 H         1 UNK         0.0793 
    116 H116      -78.1564   25.4959  -72.5226 H         1 UNK         0.0793 
    117 H117      -78.0912   23.8202  -74.3855 H         1 UNK         0.3047 
    118 H118      -77.6151   23.5903  -77.8488 H         1 UNK         0.0822 
    119 H119      -78.2510   21.2126  -77.6400 H         1 UNK         0.0807 
    120 H120      -77.8176   21.2128  -75.9296 H         1 UNK         0.0807 
    121 H121      -76.5778   21.4262  -77.1580 H         1 UNK         0.0807 
    122 H122      -79.8179   22.7000  -76.4082 H         1 UNK         0.2946 
    123 H123      -81.6777   25.5855  -76.6409 H         1 UNK         0.1144 
    124 H124      -83.0915   23.6354  -76.1203 H         1 UNK         0.0793 
    125 H125      -81.6993   22.6637  -75.6729 H         1 UNK         0.0793 
    126 H126      -81.9246   23.1819  -77.3455 H         1 UNK         0.0793 
    127 H127      -81.0010   24.4263  -73.9556 H         1 UNK         0.2896 
@<TRIPOS>BOND
     1    1    2 1    
     2    1   67 1    
     3    1   68 1    
     4    1   69 1    
     5    2    3 2    
     6    2    4 am   BACKBONE|DICT|INTERRES
     7    4    5 1    
     8    4   70 1    
     9    5    6 1    
    10    5   65 1    
    11    5   71 1    
    12    6    7 1    
    13    6   72 1    
    14    6   73 1    
    15    7    8 1    
    16    8    9 1    
    17    8   74 1    
    18    8   75 1    
    19    9   10 ar   
    20    9   14 ar   
    21   10   11 ar   
    22   10   76 1    
    23   11   12 ar   
    24   11   48 1    
    25   12   13 ar   
    26   12   77 1    
    27   13   14 ar   
    28   13   15 1    
    29   14   78 1    
    30   15   16 1    
    31   15   79 1    
    32   15   80 1    
    33   16   17 1    
    34   17   18 1    
    35   17   81 1    
    36   17   82 1    
    37   18   19 1    
    38   18   22 1    
    39   18   83 1    
    40   19   20 am   BACKBONE|DICT|INTERRES
    41   19   21 2    
    42   20   84 1    
    43   20   85 1    
    44   22   23 am   BACKBONE|DICT|INTERRES
    45   22   86 1    
    46   23   24 2    
    47   23   25 1    
    48   25   26 1    
    49   25   27 1    
    50   25   87 1    
    51   26   88 1    
    52   26   89 1    
    53   26   90 1    
    54   27   28 am   BACKBONE|DICT|INTERRES
    55   27   91 1    
    56   28   29 2    
    57   28   30 1    
    58   30   31 1    
    59   30   32 1    
    60   30   92 1    
    61   31   93 1    
    62   31   94 1    
    63   31   95 1    
    64   32   33 am   BACKBONE|DICT|INTERRES
    65   32   96 1    
    66   33   34 2    
    67   33   35 1    
    68   35   36 1    
    69   35   37 1    
    70   35   97 1    
    71   36   98 1    
    72   36   99 1    
    73   36  100 1    
    74   37   38 am   BACKBONE|DICT|INTERRES
    75   37  101 1    
    76   38   39 2    
    77   38   40 1    
    78   40   41 1    
    79   40   42 1    
    80   40  102 1    
    81   41  103 1    
    82   41  104 1    
    83   41  105 1    
    84   42   43 am   BACKBONE|DICT|INTERRES
    85   42  106 1    
    86   43   44 2    
    87   43   45 1    
    88   45   46 1    
    89   45   49 1    
    90   45  107 1    
    91   46   47 1    
    92   46  108 1    
    93   46  109 1    
    94   47   48 1    
    95   48  110 1    
    96   48  111 1    
    97   49   50 am   BACKBONE|DICT|INTERRES
    98   49  112 1    
    99   50   51 2    
   100   50   52 1    
   101   52   53 1    
   102   52   54 1    
   103   52  113 1    
   104   53  114 1    
   105   53  115 1    
   106   53  116 1    
   107   54   55 am   BACKBONE|DICT|INTERRES
   108   54  117 1    
   109   55   56 2    
   110   55   57 1    
   111   57   58 1    
   112   57   59 1    
   113   57  118 1    
   114   58  119 1    
   115   58  120 1    
   116   58  121 1    
   117   59   60 am   BACKBONE|DICT|INTERRES
   118   59  122 1    
   119   60   61 2    
   120   60   62 1    
   121   62   63 1    
   122   62   64 1    
   123   62  123 1    
   124   63  124 1    
   125   63  125 1    
   126   63  126 1    
   127   64   65 am   BACKBONE|DICT|INTERRES
   128   64  127 1    
   129   65   66 2    
@<TRIPOS>SUBSTRUCTURE
     1 UNK         1 GROUP             0       ****    0 ROOT    
