@<TRIPOS>MOLECULE
3R135
127   129    1
SMALL
USER_CHARGES


@<TRIPOS>ATOM
      1 CA        -80.4989   21.7789  -72.5510 C.3       0 UNK        -0.1998 
      2 C         -81.2246   23.0401  -72.9932 C.2       0 UNK         0.4909 
      3 O         -81.8127   23.0647  -74.0750 O.2       0 UNK        -0.5240 
      4 N         -81.1779   24.0930  -72.1684 N.am      1 UNK        -0.4739 
      5 CA        -81.7553   25.4172  -72.4237 C.3       1 UNK         0.0864 
      6 C6        -81.6762   26.3515  -71.1846 C.3       11 UNK        -0.0881 
      7 S7        -80.1423   26.2032  -70.1964 S.3       11 UNK        -0.2682 
      8 C8        -79.7860   27.9347  -69.7730 C.3       11 UNK         0.0289 
      9 C9        -78.8189   28.5691  -70.7596 C.ar      11 UNK        -0.0687 
     10 C10       -79.2791   29.4231  -71.7666 C.ar      11 UNK        -0.0823 
     11 C11       -78.3779   30.0518  -72.6339 C.ar      11 UNK        -0.0830 
     12 C12       -77.0068   29.8136  -72.4829 C.ar      11 UNK        -0.1021 
     13 C13       -76.5389   28.9381  -71.4989 C.ar      11 UNK        -0.0753 
     14 C14       -77.4490   28.3230  -70.6372 C.ar      11 UNK        -0.0933 
     15 C15       -75.0517   28.6568  -71.3707 C.3       11 UNK         0.0166 
     16 S16       -74.1848   30.0621  -70.6059 S.3       11 UNK        -0.2615 
     17 C17       -72.4501   29.4948  -70.6543 C.3       11 UNK        -0.0865 
     18 CA        -71.6878   30.0251  -71.8979 C.3       10 UNK         0.0862 
     19 C         -70.1550   29.7743  -71.7756 C.2       10 UNK         0.5551 
     20 N         -69.5116   29.0545  -72.6879 N.am      10 UNK        -0.7319 
     21 O         -69.5326   30.2535  -70.8309 O.2       10 UNK        -0.5018 
     22 N         -72.2835   29.5090  -73.1374 N.am      10 UNK        -0.4509 
     23 C         -72.2241   30.0947  -74.3377 C.2       10 UNK         0.4899 
     24 O         -71.7144   31.1981  -74.5384 O.2       10 UNK        -0.4839 
     25 CA        -72.8438   29.2991  -75.5064 C.3       9 UNK         0.0222 
     26 CB        -72.2673   29.7127  -76.8764 C.3       9 UNK        -0.1966 
     27 N         -72.7721   27.8375  -75.3432 N.am      9 UNK        -0.4218 
     28 C         -71.6632   27.1039  -75.1522 C.2       9 UNK         0.5020 
     29 O         -70.5307   27.5766  -75.0469 O.2       9 UNK        -0.5274 
     30 CA        -71.8509   25.5887  -75.0276 C.3       8 UNK         0.0270 
     31 CB        -72.2647   25.2094  -73.5946 C.3       8 UNK        -0.1976 
     32 N         -72.8413   25.0901  -75.9841 N.am      8 UNK        -0.4313 
     33 C         -72.5332   24.6301  -77.2033 C.2       8 UNK         0.5041 
     34 O         -71.3882   24.6033  -77.6579 O.2       8 UNK        -0.5577 
     35 CA        -73.6823   24.0627  -78.0477 C.3       7 UNK         0.0284 
     36 CB        -74.1113   22.6859  -77.5133 C.3       7 UNK        -0.1958 
     37 N         -74.8468   24.9468  -78.1370 N.am      7 UNK        -0.4454 
     38 C         -74.9063   26.0275  -78.9288 C.2       7 UNK         0.5089 
     39 O         -73.9463   26.4658  -79.5633 O.2       7 UNK        -0.5125 
     40 CA        -76.2782   26.7086  -79.0804 C.3       6 UNK         0.0408 
     41 CB        -77.2445   25.8253  -79.8868 C.3       6 UNK        -0.1791 
     42 N         -76.8831   27.0481  -77.7949 N.am      6 UNK        -0.4762 
     43 C         -76.4875   28.0647  -77.0172 C.2       6 UNK         0.5007 
     44 O         -75.6153   28.8687  -77.3421 O.2       6 UNK        -0.5032 
     45 CA        -77.1548   28.1844  -75.6297 C.3       5 UNK         0.0783 
     46 C46       -78.4552   29.0286  -75.6828 C.3       11 UNK        -0.0857 
     47 S47       -78.1269   30.7891  -75.3465 S.3       11 UNK        -0.2512 
     48 C48       -78.8992   31.0089  -73.7048 C.3       11 UNK         0.0225 
     49 N         -77.3808   26.8822  -74.9997 N.am      5 UNK        -0.4615 
     50 C         -76.4226   25.9952  -74.7043 C.2       4 UNK         0.5053 
     51 O         -75.2202   26.2009  -74.8744 O.2       4 UNK        -0.5105 
     52 CA        -76.8943   24.6239  -74.1983 C.3       4 UNK         0.0263 
     53 CB        -77.1671   24.6604  -72.6859 C.3       4 UNK        -0.1981 
     54 N         -78.0882   24.1711  -74.9200 N.am      4 UNK        -0.4224 
     55 C         -78.0832   23.7900  -76.2073 C.2       3 UNK         0.4895 
     56 O         -77.0627   23.7048  -76.8872 O.2       3 UNK        -0.5091 
     57 CA        -79.4404   23.5129  -76.8724 C.3       3 UNK         0.0250 
     58 CB        -79.8760   22.0569  -76.6490 C.3       3 UNK        -0.1996 
     59 N         -80.4818   24.4359  -76.4146 N.am      3 UNK        -0.4254 
     60 C         -80.5052   25.7395  -76.7366 C.2       2 UNK         0.5004 
     61 O         -79.6893   26.2656  -77.4921 O.2       2 UNK        -0.5226 
     62 CA        -81.5827   26.6215  -76.0798 C.3       2 UNK         0.0269 
     63 CB        -82.8231   26.7136  -76.9820 C.3       2 UNK        -0.1926 
     64 N         -81.9838   26.1694  -74.7448 N.am      2 UNK        -0.4687 
     65 C         -81.1578   26.0523  -73.6955 C.2       1 UNK         0.5165 
     66 O         -79.9656   26.3596  -73.7339 O.2       1 UNK        -0.5079 
     67 H67       -81.1448   20.9103  -72.6762 H         1 UNK         0.0900 
     68 H68       -80.2010   21.8294  -71.5038 H         1 UNK         0.0900 
     69 H69       -79.6028   21.6287  -73.1521 H         1 UNK         0.0900 
     70 H70       -80.6517   24.0311  -71.3075 H         1 UNK         0.2959 
     71 H71       -82.8173   25.2518  -72.6189 H         1 UNK         0.1079 
     72 H72       -81.8383   27.3918  -71.4733 H         1 UNK         0.0837 
     73 H73       -82.5007   26.1119  -70.5113 H         1 UNK         0.0837 
     74 H74       -79.3460   27.9616  -68.7750 H         1 UNK         0.0685 
     75 H75       -80.7113   28.5087  -69.7051 H         1 UNK         0.0685 
     76 H76       -80.3397   29.6103  -71.8627 H         1 UNK         0.1434 
     77 H77       -76.2988   30.3072  -73.1342 H         1 UNK         0.1329 
     78 H78       -77.0931   27.6557  -69.8642 H         1 UNK         0.1335 
     79 H79       -74.8794   27.7582  -70.7760 H         1 UNK         0.0680 
     80 H80       -74.6463   28.4542  -72.3618 H         1 UNK         0.0680 
     81 H81       -71.9757   29.8507  -69.7375 H         1 UNK         0.1032 
     82 H82       -72.4097   28.4051  -70.6060 H         1 UNK         0.1032 
     83 H83       -71.8007   31.1111  -71.9070 H         1 UNK         0.0461 
     84 H84       -69.9948   28.6555  -73.4863 H         1 UNK         0.3453 
     85 H85       -68.5195   28.9123  -72.5869 H         1 UNK         0.3453 
     86 H86       -72.6958   28.5916  -73.0805 H         1 UNK         0.2984 
     87 H87       -73.9032   29.5544  -75.4992 H         1 UNK         0.0554 
     88 H88       -72.7429   29.1594  -77.6867 H         1 UNK         0.0847 
     89 H89       -71.1929   29.5355  -76.9330 H         1 UNK         0.0847 
     90 H90       -72.4353   30.7727  -77.0702 H         1 UNK         0.0847 
     91 H91       -73.6608   27.3447  -75.3607 H         1 UNK         0.3141 
     92 H92       -70.8847   25.1181  -75.2231 H         1 UNK         0.0743 
     93 H93       -71.5093   25.5305  -72.8760 H         1 UNK         0.0784 
     94 H94       -73.2077   25.6693  -73.2992 H         1 UNK         0.0784 
     95 H95       -72.3727   24.1299  -73.4881 H         1 UNK         0.0784 
     96 H96       -73.8161   25.1570  -75.7061 H         1 UNK         0.3213 
     97 H97       -73.2986   23.9130  -79.0597 H         1 UNK         0.0855 
     98 H98       -74.5199   22.7506  -76.5042 H         1 UNK         0.0814 
     99 H99       -73.2646   21.9989  -77.4788 H         1 UNK         0.0814 
    100 H100      -74.8703   22.2325  -78.1512 H         1 UNK         0.0814 
    101 H101      -75.6916   24.6326  -77.6616 H         1 UNK         0.3105 
    102 H102      -76.1310   27.6332  -79.6429 H         1 UNK         0.0547 
    103 H103      -78.1902   26.3370  -80.0665 H         1 UNK         0.0837 
    104 H104      -76.8222   25.5722  -80.8601 H         1 UNK         0.0837 
    105 H105      -77.4669   24.8892  -79.3740 H         1 UNK         0.0837 
    106 H106      -77.6729   26.4862  -77.4931 H         1 UNK         0.3020 
    107 H107      -76.4289   28.6885  -74.9897 H         1 UNK         0.1245 
    108 H108      -79.1742   28.6731  -74.9437 H         1 UNK         0.0781 
    109 H109      -78.9651   28.9360  -76.6439 H         1 UNK         0.0781 
    110 H110      -79.9792   30.9035  -73.8195 H         1 UNK         0.0836 
    111 H111      -78.7251   32.0325  -73.3710 H         1 UNK         0.0836 
    112 H112      -78.3384   26.6568  -74.7460 H         1 UNK         0.3022 
    113 H113      -76.0918   23.9059  -74.3813 H         1 UNK         0.0747 
    114 H114      -77.4862   23.6864  -72.3151 H         1 UNK         0.0793 
    115 H115      -76.2657   24.9372  -72.1375 H         1 UNK         0.0793 
    116 H116      -77.9364   25.3873  -72.4237 H         1 UNK         0.0793 
    117 H117      -78.9753   24.2957  -74.4533 H         1 UNK         0.3047 
    118 H118      -79.3142   23.6588  -77.9476 H         1 UNK         0.0822 
    119 H119      -79.1418   21.3657  -77.0651 H         1 UNK         0.0807 
    120 H120      -80.8291   21.8483  -77.1353 H         1 UNK         0.0807 
    121 H121      -79.9802   21.8183  -75.5916 H         1 UNK         0.0807 
    122 H122      -81.1654   24.0725  -75.7573 H         1 UNK         0.2946 
    123 H123      -81.1613   27.6232  -75.9766 H         1 UNK         0.1144 
    124 H124      -82.5551   27.0706  -77.9776 H         1 UNK         0.0793 
    125 H125      -83.5580   27.4101  -76.5778 H         1 UNK         0.0793 
    126 H126      -83.3080   25.7441  -77.1030 H         1 UNK         0.0793 
    127 H127      -82.9400   25.8584  -74.6467 H         1 UNK         0.2896 
@<TRIPOS>BOND
     1    1    2 1    
     2    1   67 1    
     3    1   68 1    
     4    1   69 1    
     5    2    3 2    
     6    2    4 am   BACKBONE|DICT|INTERRES
     7    4    5 1    
     8    4   70 1    
     9    5    6 1    
    10    5   65 1    
    11    5   71 1    
    12    6    7 1    
    13    6   72 1    
    14    6   73 1    
    15    7    8 1    
    16    8    9 1    
    17    8   74 1    
    18    8   75 1    
    19    9   10 ar   
    20    9   14 ar   
    21   10   11 ar   
    22   10   76 1    
    23   11   12 ar   
    24   11   48 1    
    25   12   13 ar   
    26   12   77 1    
    27   13   14 ar   
    28   13   15 1    
    29   14   78 1    
    30   15   16 1    
    31   15   79 1    
    32   15   80 1    
    33   16   17 1    
    34   17   18 1    
    35   17   81 1    
    36   17   82 1    
    37   18   19 1    
    38   18   22 1    
    39   18   83 1    
    40   19   20 am   BACKBONE|DICT|INTERRES
    41   19   21 2    
    42   20   84 1    
    43   20   85 1    
    44   22   23 am   BACKBONE|DICT|INTERRES
    45   22   86 1    
    46   23   24 2    
    47   23   25 1    
    48   25   26 1    
    49   25   27 1    
    50   25   87 1    
    51   26   88 1    
    52   26   89 1    
    53   26   90 1    
    54   27   28 am   BACKBONE|DICT|INTERRES
    55   27   91 1    
    56   28   29 2    
    57   28   30 1    
    58   30   31 1    
    59   30   32 1    
    60   30   92 1    
    61   31   93 1    
    62   31   94 1    
    63   31   95 1    
    64   32   33 am   BACKBONE|DICT|INTERRES
    65   32   96 1    
    66   33   34 2    
    67   33   35 1    
    68   35   36 1    
    69   35   37 1    
    70   35   97 1    
    71   36   98 1    
    72   36   99 1    
    73   36  100 1    
    74   37   38 am   BACKBONE|DICT|INTERRES
    75   37  101 1    
    76   38   39 2    
    77   38   40 1    
    78   40   41 1    
    79   40   42 1    
    80   40  102 1    
    81   41  103 1    
    82   41  104 1    
    83   41  105 1    
    84   42   43 am   BACKBONE|DICT|INTERRES
    85   42  106 1    
    86   43   44 2    
    87   43   45 1    
    88   45   46 1    
    89   45   49 1    
    90   45  107 1    
    91   46   47 1    
    92   46  108 1    
    93   46  109 1    
    94   47   48 1    
    95   48  110 1    
    96   48  111 1    
    97   49   50 am   BACKBONE|DICT|INTERRES
    98   49  112 1    
    99   50   51 2    
   100   50   52 1    
   101   52   53 1    
   102   52   54 1    
   103   52  113 1    
   104   53  114 1    
   105   53  115 1    
   106   53  116 1    
   107   54   55 am   BACKBONE|DICT|INTERRES
   108   54  117 1    
   109   55   56 2    
   110   55   57 1    
   111   57   58 1    
   112   57   59 1    
   113   57  118 1    
   114   58  119 1    
   115   58  120 1    
   116   58  121 1    
   117   59   60 am   BACKBONE|DICT|INTERRES
   118   59  122 1    
   119   60   61 2    
   120   60   62 1    
   121   62   63 1    
   122   62   64 1    
   123   62  123 1    
   124   63  124 1    
   125   63  125 1    
   126   63  126 1    
   127   64   65 am   BACKBONE|DICT|INTERRES
   128   64  127 1    
   129   65   66 2    
@<TRIPOS>SUBSTRUCTURE
     1 UNK         1 GROUP             0       ****    0 ROOT    
