@<TRIPOS>MOLECULE
3R135
127   129    1
SMALL
USER_CHARGES


@<TRIPOS>ATOM
      1 CA        -77.4656   30.3065  -77.3828 C.3       0 UNK        -0.1998 
      2 C         -78.4839   29.5140  -76.5774 C.2       0 UNK         0.4909 
      3 O         -79.6490   29.4542  -76.9691 O.2       0 UNK        -0.5240 
      4 N         -78.0503   28.8933  -75.4718 N.am      1 UNK        -0.4739 
      5 CA        -78.8226   28.1482  -74.4589 C.3       1 UNK         0.0864 
      6 C6        -79.8831   29.0107  -73.7249 C.3       11 UNK        -0.0881 
      7 S7        -79.1835   30.5120  -72.9603 S.3       11 UNK        -0.2682 
      8 C8        -78.9688   29.9825  -71.2315 C.3       11 UNK         0.0289 
      9 C9        -77.7877   29.0374  -71.0536 C.ar      11 UNK        -0.0687 
     10 C10       -77.9882   27.7047  -70.6766 C.ar      11 UNK        -0.0823 
     11 C11       -76.8958   26.8584  -70.4534 C.ar      11 UNK        -0.0830 
     12 C12       -75.5982   27.3566  -70.6091 C.ar      11 UNK        -0.1021 
     13 C13       -75.3858   28.6775  -71.0076 C.ar      11 UNK        -0.0753 
     14 C14       -76.4847   29.5118  -71.2308 C.ar      11 UNK        -0.0933 
     15 C15       -73.9728   29.1896  -71.2342 C.3       11 UNK         0.0166 
     16 S16       -73.5658   30.5990  -70.1604 S.3       11 UNK        -0.2615 
     17 C17       -71.9584   31.1089  -70.8580 C.3       11 UNK        -0.0865 
     18 CA        -72.1104   32.2272  -71.9226 C.3       10 UNK         0.0862 
     19 C         -70.7398   32.8808  -72.2374 C.2       10 UNK         0.5551 
     20 N         -70.3809   33.9409  -71.5272 N.am      10 UNK        -0.7319 
     21 O         -69.9852   32.4134  -73.0889 O.2       10 UNK        -0.5018 
     22 N         -72.7316   31.7178  -73.1538 N.am      10 UNK        -0.4509 
     23 C         -73.5581   32.4144  -73.9418 C.2       10 UNK         0.4899 
     24 O         -73.9703   33.5425  -73.6689 O.2       10 UNK        -0.4839 
     25 CA        -73.9943   31.7678  -75.2705 C.3       9 UNK         0.0222 
     26 CB        -73.4719   32.5883  -76.4627 C.3       9 UNK        -0.1966 
     27 N         -73.5454   30.3786  -75.4273 N.am      9 UNK        -0.4218 
     28 C         -74.2851   29.3036  -75.1295 C.2       9 UNK         0.5020 
     29 O         -75.4089   29.3558  -74.6275 O.2       9 UNK        -0.5274 
     30 CA        -73.6695   27.9309  -75.4473 C.3       8 UNK         0.0270 
     31 CB        -73.2088   27.2282  -74.1605 C.3       8 UNK        -0.1976 
     32 N         -74.6234   27.0705  -76.1502 N.am      8 UNK        -0.4313 
     33 C         -75.1036   27.3130  -77.3800 C.2       8 UNK         0.5041 
     34 O         -74.7495   28.2718  -78.0690 O.2       8 UNK        -0.5577 
     35 CA        -76.1536   26.3270  -77.9328 C.3       7 UNK         0.0284 
     36 CB        -76.2794   26.3726  -79.4695 C.3       7 UNK        -0.1958 
     37 N         -75.9638   24.9499  -77.4680 N.am      7 UNK        -0.4454 
     38 C         -74.8798   24.1741  -77.6147 C.2       7 UNK         0.5089 
     39 O         -73.8893   24.5002  -78.2708 O.2       7 UNK        -0.5125 
     40 CA        -74.8984   22.8065  -76.8971 C.3       6 UNK         0.0408 
     41 CB        -73.4833   22.3512  -76.4842 C.3       6 UNK        -0.1791 
     42 N         -75.8078   22.7229  -75.7440 N.am      6 UNK        -0.4762 
     43 C         -75.8153   23.4931  -74.6404 C.2       6 UNK         0.5007 
     44 O         -75.0694   24.4619  -74.4871 O.2       6 UNK        -0.5032 
     45 CA        -76.8403   23.1184  -73.5474 C.3       5 UNK         0.0783 
     46 C46       -77.2011   24.2835  -72.5840 C.3       11 UNK        -0.0857 
     47 S47       -76.2222   24.2156  -71.0500 S.3       11 UNK        -0.2512 
     48 C48       -77.1124   25.4172  -70.0070 C.3       11 UNK         0.0225 
     49 N         -78.0321   22.5301  -74.1612 N.am      5 UNK        -0.4615 
     50 C         -78.5616   21.3434  -73.8356 C.2       4 UNK         0.5053 
     51 O         -78.1372   20.6339  -72.9232 O.2       4 UNK        -0.5105 
     52 CA        -79.7556   20.8375  -74.6702 C.3       4 UNK         0.0263 
     53 CB        -81.0724   21.0742  -73.9127 C.3       4 UNK        -0.1981 
     54 N         -79.8583   21.4430  -76.0003 N.am      4 UNK        -0.4224 
     55 C         -78.9482   21.3420  -76.9804 C.2       3 UNK         0.4895 
     56 O         -77.9301   20.6539  -76.9053 O.2       3 UNK        -0.5091 
     57 CA        -79.1775   22.2175  -78.2271 C.3       3 UNK         0.0250 
     58 CB        -79.9025   21.4177  -79.3208 C.3       3 UNK        -0.1996 
     59 N         -79.9168   23.4597  -77.9566 N.am      3 UNK        -0.4254 
     60 C         -79.5207   24.4140  -77.1017 C.2       2 UNK         0.5004 
     61 O         -78.4791   24.3338  -76.4474 O.2       2 UNK        -0.5226 
     62 CA        -80.4548   25.6278  -76.9526 C.3       2 UNK         0.0269 
     63 CB        -81.7969   25.2221  -76.3072 C.3       2 UNK        -0.1926 
     64 N         -79.8472   26.7526  -76.2269 N.am      2 UNK        -0.4687 
     65 C         -79.4623   26.8263  -74.9439 C.2       1 UNK         0.5165 
     66 O         -79.6080   25.9130  -74.1309 O.2       1 UNK        -0.5079 
     67 H67       -76.4877   30.3239  -76.9045 H         1 UNK         0.0900 
     68 H68       -77.8004   31.3365  -77.5010 H         1 UNK         0.0900 
     69 H69       -77.3472   29.8686  -78.3736 H         1 UNK         0.0900 
     70 H70       -77.0718   29.0216  -75.2094 H         1 UNK         0.2959 
     71 H71       -78.0790   27.8494  -73.7177 H         1 UNK         0.1079 
     72 H72       -80.6658   29.3218  -74.4190 H         1 UNK         0.0837 
     73 H73       -80.3869   28.4256  -72.9528 H         1 UNK         0.0837 
     74 H74       -78.8026   30.8683  -70.6169 H         1 UNK         0.0685 
     75 H75       -79.8935   29.5323  -70.8672 H         1 UNK         0.0685 
     76 H76       -78.9942   27.3317  -70.5406 H         1 UNK         0.1434 
     77 H77       -74.7523   26.7059  -70.4338 H         1 UNK         0.1329 
     78 H78       -76.3239   30.5356  -71.5403 H         1 UNK         0.1335 
     79 H79       -73.2388   28.3979  -71.0763 H         1 UNK         0.0680 
     80 H80       -73.8878   29.4907  -72.2752 H         1 UNK         0.0680 
     81 H81       -71.4299   30.2445  -71.2645 H         1 UNK         0.1032 
     82 H82       -71.3515   31.4612  -70.0213 H         1 UNK         0.1032 
     83 H83       -72.7529   33.0014  -71.4972 H         1 UNK         0.0461 
     84 H84       -70.9889   34.3256  -70.8206 H         1 UNK         0.3453 
     85 H85       -69.4870   34.3716  -71.7063 H         1 UNK         0.3453 
     86 H86       -72.3956   30.8265  -73.4828 H         1 UNK         0.2984 
     87 H87       -75.0855   31.8036  -75.2969 H         1 UNK         0.0554 
     88 H88       -73.8177   32.1744  -77.4102 H         1 UNK         0.0847 
     89 H89       -72.3818   32.6198  -76.4865 H         1 UNK         0.0847 
     90 H90       -73.8259   33.6191  -76.4154 H         1 UNK         0.0847 
     91 H91       -72.6360   30.2439  -75.8473 H         1 UNK         0.3141 
     92 H92       -72.8027   28.0668  -76.0973 H         1 UNK         0.0743 
     93 H93       -74.0421   27.0549  -73.4773 H         1 UNK         0.0784 
     94 H94       -72.7540   26.2615  -74.3784 H         1 UNK         0.0784 
     95 H95       -72.4646   27.8238  -73.6311 H         1 UNK         0.0784 
     96 H96       -74.9445   26.2482  -75.6494 H         1 UNK         0.3213 
     97 H97       -77.1083   26.6523  -77.5175 H         1 UNK         0.0855 
     98 H98       -76.5559   27.3711  -79.8104 H         1 UNK         0.0814 
     99 H99       -77.0480   25.6861  -79.8245 H         1 UNK         0.0814 
    100 H100      -75.3410   26.1101  -79.9588 H         1 UNK         0.0814 
    101 H101      -76.7434   24.5763  -76.9272 H         1 UNK         0.3105 
    102 H102      -75.2769   22.0910  -77.6284 H         1 UNK         0.0547 
    103 H103      -72.8269   22.2667  -77.3511 H         1 UNK         0.0837 
    104 H104      -73.0199   23.0562  -75.7930 H         1 UNK         0.0837 
    105 H105      -73.5047   21.3737  -76.0028 H         1 UNK         0.0837 
    106 H106      -76.4938   21.9785  -75.7985 H         1 UNK         0.3020 
    107 H107      -76.3342   22.3393  -72.9728 H         1 UNK         0.1245 
    108 H108      -78.2521   24.2230  -72.2961 H         1 UNK         0.0781 
    109 H109      -77.0862   25.2634  -73.0520 H         1 UNK         0.0781 
    110 H110      -76.7596   25.3160  -68.9799 H         1 UNK         0.0836 
    111 H111      -78.1735   25.1637  -69.9925 H         1 UNK         0.0836 
    112 H112      -78.4255   23.0673  -74.9294 H         1 UNK         0.3022 
    113 H113      -79.6237   19.7621  -74.8063 H         1 UNK         0.0747 
    114 H114      -81.9214   20.6464  -74.4463 H         1 UNK         0.0793 
    115 H115      -81.0448   20.6085  -72.9265 H         1 UNK         0.0793 
    116 H116      -81.2669   22.1376  -73.7652 H         1 UNK         0.0793 
    117 H117      -80.6566   22.0390  -76.1616 H         1 UNK         0.3047 
    118 H118      -78.1927   22.5005  -78.6057 H         1 UNK         0.0822 
    119 H119      -79.9825   21.9902  -80.2451 H         1 UNK         0.0807 
    120 H120      -80.9092   21.1316  -79.0133 H         1 UNK         0.0807 
    121 H121      -79.3610   20.5004  -79.5572 H         1 UNK         0.0807 
    122 H122      -80.7797   23.5886  -78.4661 H         1 UNK         0.2946 
    123 H123      -80.6568   25.9982  -77.9591 H         1 UNK         0.1144 
    124 H124      -82.3401   24.5116  -76.9310 H         1 UNK         0.0793 
    125 H125      -82.4464   26.0868  -76.1703 H         1 UNK         0.0793 
    126 H126      -81.6567   24.7536  -75.3323 H         1 UNK         0.0793 
    127 H127      -79.7300   27.6086  -76.7636 H         1 UNK         0.2896 
@<TRIPOS>BOND
     1    1    2 1    
     2    1   67 1    
     3    1   68 1    
     4    1   69 1    
     5    2    3 2    
     6    2    4 am   BACKBONE|DICT|INTERRES
     7    4    5 1    
     8    4   70 1    
     9    5    6 1    
    10    5   65 1    
    11    5   71 1    
    12    6    7 1    
    13    6   72 1    
    14    6   73 1    
    15    7    8 1    
    16    8    9 1    
    17    8   74 1    
    18    8   75 1    
    19    9   10 ar   
    20    9   14 ar   
    21   10   11 ar   
    22   10   76 1    
    23   11   12 ar   
    24   11   48 1    
    25   12   13 ar   
    26   12   77 1    
    27   13   14 ar   
    28   13   15 1    
    29   14   78 1    
    30   15   16 1    
    31   15   79 1    
    32   15   80 1    
    33   16   17 1    
    34   17   18 1    
    35   17   81 1    
    36   17   82 1    
    37   18   19 1    
    38   18   22 1    
    39   18   83 1    
    40   19   20 am   BACKBONE|DICT|INTERRES
    41   19   21 2    
    42   20   84 1    
    43   20   85 1    
    44   22   23 am   BACKBONE|DICT|INTERRES
    45   22   86 1    
    46   23   24 2    
    47   23   25 1    
    48   25   26 1    
    49   25   27 1    
    50   25   87 1    
    51   26   88 1    
    52   26   89 1    
    53   26   90 1    
    54   27   28 am   BACKBONE|DICT|INTERRES
    55   27   91 1    
    56   28   29 2    
    57   28   30 1    
    58   30   31 1    
    59   30   32 1    
    60   30   92 1    
    61   31   93 1    
    62   31   94 1    
    63   31   95 1    
    64   32   33 am   BACKBONE|DICT|INTERRES
    65   32   96 1    
    66   33   34 2    
    67   33   35 1    
    68   35   36 1    
    69   35   37 1    
    70   35   97 1    
    71   36   98 1    
    72   36   99 1    
    73   36  100 1    
    74   37   38 am   BACKBONE|DICT|INTERRES
    75   37  101 1    
    76   38   39 2    
    77   38   40 1    
    78   40   41 1    
    79   40   42 1    
    80   40  102 1    
    81   41  103 1    
    82   41  104 1    
    83   41  105 1    
    84   42   43 am   BACKBONE|DICT|INTERRES
    85   42  106 1    
    86   43   44 2    
    87   43   45 1    
    88   45   46 1    
    89   45   49 1    
    90   45  107 1    
    91   46   47 1    
    92   46  108 1    
    93   46  109 1    
    94   47   48 1    
    95   48  110 1    
    96   48  111 1    
    97   49   50 am   BACKBONE|DICT|INTERRES
    98   49  112 1    
    99   50   51 2    
   100   50   52 1    
   101   52   53 1    
   102   52   54 1    
   103   52  113 1    
   104   53  114 1    
   105   53  115 1    
   106   53  116 1    
   107   54   55 am   BACKBONE|DICT|INTERRES
   108   54  117 1    
   109   55   56 2    
   110   55   57 1    
   111   57   58 1    
   112   57   59 1    
   113   57  118 1    
   114   58  119 1    
   115   58  120 1    
   116   58  121 1    
   117   59   60 am   BACKBONE|DICT|INTERRES
   118   59  122 1    
   119   60   61 2    
   120   60   62 1    
   121   62   63 1    
   122   62   64 1    
   123   62  123 1    
   124   63  124 1    
   125   63  125 1    
   126   63  126 1    
   127   64   65 am   BACKBONE|DICT|INTERRES
   128   64  127 1    
   129   65   66 2    
@<TRIPOS>SUBSTRUCTURE
     1 UNK         1 GROUP             0       ****    0 ROOT    
