@<TRIPOS>MOLECULE
3R135
127   129    1
SMALL
USER_CHARGES


@<TRIPOS>ATOM
      1 CA        -85.4005   29.3532  -73.7275 C.3       0 UNK        -0.1998 
      2 C         -84.1719   29.0832  -74.5833 C.2       0 UNK         0.4909 
      3 O         -84.2541   29.1496  -75.8104 O.2       0 UNK        -0.5240 
      4 N         -83.0318   28.7872  -73.9459 N.am      1 UNK        -0.4739 
      5 CA        -81.7745   28.4260  -74.6101 C.3       1 UNK         0.0864 
      6 C6        -80.5661   28.5647  -73.6444 C.3       11 UNK        -0.0881 
      7 S7        -79.0819   29.2702  -74.4448 S.3       11 UNK        -0.2682 
      8 C8        -78.3129   30.2218  -73.0816 C.3       11 UNK         0.0289 
      9 C9        -77.4826   29.3346  -72.1603 C.ar      11 UNK        -0.0687 
     10 C10       -78.1122   28.3947  -71.3436 C.ar      11 UNK        -0.0823 
     11 C11       -77.3633   27.4676  -70.6167 C.ar      11 UNK        -0.0830 
     12 C12       -75.9716   27.5740  -70.5880 C.ar      11 UNK        -0.1021 
     13 C13       -75.3276   28.5611  -71.3389 C.ar      11 UNK        -0.0753 
     14 C14       -76.0860   29.4204  -72.1453 C.ar      11 UNK        -0.0933 
     15 C15       -73.8111   28.6612  -71.3244 C.3       11 UNK         0.0166 
     16 S16       -73.2597   30.2605  -70.6504 S.3       11 UNK        -0.2615 
     17 C17       -71.4902   30.2500  -71.0947 C.3       11 UNK        -0.0865 
     18 CA        -71.2039   30.9725  -72.4408 C.3       10 UNK         0.0862 
     19 C         -69.6818   31.2333  -72.6334 C.2       10 UNK         0.5551 
     20 N         -69.0563   30.7947  -73.7208 N.am      10 UNK        -0.7319 
     21 O         -69.0558   31.8642  -71.7851 O.2       10 UNK        -0.5018 
     22 N         -71.7965   30.2449  -73.5712 N.am      10 UNK        -0.4509 
     23 C         -72.8495   30.6096  -74.3059 C.2       10 UNK         0.4899 
     24 O         -73.4834   31.6501  -74.1295 O.2       10 UNK        -0.4839 
     25 CA        -73.2942   29.6497  -75.4285 C.3       9 UNK         0.0222 
     26 CB        -72.7293   30.1159  -76.7844 C.3       9 UNK        -0.1966 
     27 N         -73.0176   28.2181  -75.2080 N.am      9 UNK        -0.4218 
     28 C         -71.8351   27.5877  -75.1173 C.2       9 UNK         0.5020 
     29 O         -70.7458   28.1636  -75.1030 O.2       9 UNK        -0.5274 
     30 CA        -71.8711   26.0545  -75.0135 C.3       8 UNK         0.0270 
     31 CB        -72.1806   25.6123  -73.5735 C.3       8 UNK        -0.1976 
     32 N         -72.8367   25.4590  -75.9392 N.am      8 UNK        -0.4313 
     33 C         -72.7147   25.4647  -77.2755 C.2       8 UNK         0.5041 
     34 O         -71.7162   25.8697  -77.8725 O.2       8 UNK        -0.5577 
     35 CA        -73.9197   24.9574  -78.0883 C.3       7 UNK         0.0284 
     36 CB        -73.8903   23.4267  -78.2152 C.3       7 UNK        -0.1958 
     37 N         -75.1988   25.4003  -77.5228 N.am      7 UNK        -0.4454 
     38 C         -75.5928   26.6824  -77.4933 C.2       7 UNK         0.5089 
     39 O         -74.9676   27.6009  -78.0220 O.2       7 UNK        -0.5125 
     40 CA        -76.8957   27.0110  -76.7478 C.3       6 UNK         0.0408 
     41 CB        -78.0708   27.0143  -77.7306 C.3       6 UNK        -0.1791 
     42 N         -77.1716   26.1194  -75.6139 N.am      6 UNK        -0.4762 
     43 C         -76.4256   26.0932  -74.4989 C.2       6 UNK         0.5007 
     44 O         -75.4531   26.8299  -74.3233 O.2       6 UNK        -0.5032 
     45 CA        -76.7471   24.9994  -73.4557 C.3       5 UNK         0.0783 
     46 C46       -78.0601   25.2562  -72.6673 C.3       11 UNK        -0.0857 
     47 S47       -77.8860   24.7470  -70.9145 S.3       11 UNK        -0.2512 
     48 C48       -78.0668   26.2954  -69.9527 C.3       11 UNK         0.0225 
     49 N         -76.7745   23.6750  -74.0752 N.am      5 UNK        -0.4615 
     50 C         -75.7496   23.0735  -74.6890 C.2       4 UNK         0.5053 
     51 O         -74.6128   23.5393  -74.7402 O.2       4 UNK        -0.5105 
     52 CA        -76.0555   21.7410  -75.3961 C.3       4 UNK         0.0263 
     53 CB        -75.7174   20.5580  -74.4756 C.3       4 UNK        -0.1981 
     54 N         -77.4468   21.6262  -75.8458 N.am      4 UNK        -0.4224 
     55 C         -78.0367   22.4173  -76.7549 C.2       3 UNK         0.4895 
     56 O         -77.4426   23.3099  -77.3654 O.2       3 UNK        -0.5091 
     57 CA        -79.5372   22.1649  -77.0234 C.3       3 UNK         0.0250 
     58 CB        -80.2555   21.4179  -75.8749 C.3       3 UNK        -0.1996 
     59 N         -80.2891   23.3805  -77.3636 N.am      3 UNK        -0.4254 
     60 C         -80.3928   24.5065  -76.6407 C.2       2 UNK         0.5004 
     61 O         -79.7629   24.7148  -75.6005 O.2       2 UNK        -0.5226 
     62 CA        -81.3395   25.5817  -77.2196 C.3       2 UNK         0.0269 
     63 CB        -82.7634   25.0305  -77.4596 C.3       2 UNK        -0.1926 
     64 N         -81.3914   26.8245  -76.4318 N.am      2 UNK        -0.4687 
     65 C         -81.8793   26.9993  -75.1951 C.2       1 UNK         0.5165 
     66 O         -82.3983   26.1083  -74.5163 O.2       1 UNK        -0.5079 
     67 H67       -85.1817   29.2742  -72.6627 H         1 UNK         0.0900 
     68 H68       -86.1876   28.6384  -73.9658 H         1 UNK         0.0900 
     69 H69       -85.7802   30.3560  -73.9218 H         1 UNK         0.0900 
     70 H70       -83.0357   28.7081  -72.9392 H         1 UNK         0.2959 
     71 H71       -81.6459   29.1293  -75.4365 H         1 UNK         0.1079 
     72 H72       -80.8307   29.2236  -72.8162 H         1 UNK         0.0837 
     73 H73       -80.3089   27.6079  -73.1868 H         1 UNK         0.0837 
     74 H74       -79.0763   30.7472  -72.5064 H         1 UNK         0.0685 
     75 H75       -77.6816   30.9954  -73.5216 H         1 UNK         0.0685 
     76 H76       -79.1886   28.3203  -71.3414 H         1 UNK         0.1434 
     77 H77       -75.3922   26.8632  -70.0146 H         1 UNK         0.1329 
     78 H78       -75.5830   30.1509  -72.7640 H         1 UNK         0.1335 
     79 H79       -73.3709   27.8580  -70.7315 H         1 UNK         0.0680 
     80 H80       -73.4467   28.5241  -72.3407 H         1 UNK         0.0680 
     81 H81       -70.9594   30.7412  -70.2768 H         1 UNK         0.1032 
     82 H82       -71.1183   29.2241  -71.1178 H         1 UNK         0.1032 
     83 H83       -71.6495   31.9674  -72.3886 H         1 UNK         0.0461 
     84 H84       -69.5493   30.2730  -74.4295 H         1 UNK         0.3453 
     85 H85       -68.0717   30.9810  -73.8289 H         1 UNK         0.3453 
     86 H86       -71.3060   29.4045  -73.8643 H         1 UNK         0.2984 
     87 H87       -74.3817   29.7224  -75.4822 H         1 UNK         0.0554 
     88 H88       -73.0919   29.4925  -77.6014 H         1 UNK         0.0847 
     89 H89       -71.6395   30.0892  -76.8030 H         1 UNK         0.0847 
     90 H90       -73.0320   31.1411  -77.0010 H         1 UNK         0.0847 
     91 H91       -73.8509   27.6442  -75.0963 H         1 UNK         0.3141 
     92 H92       -70.8796   25.6804  -75.2772 H         1 UNK         0.0743 
     93 H93       -71.4582   26.0318  -72.8721 H         1 UNK         0.0784 
     94 H94       -73.1718   25.9327  -73.2516 H         1 UNK         0.0784 
     95 H95       -72.1355   24.5274  -73.4759 H         1 UNK         0.0784 
     96 H96       -73.6560   25.0195  -75.5265 H         1 UNK         0.3213 
     97 H97       -73.8449   25.3778  -79.0937 H         1 UNK         0.0855 
     98 H98       -73.7939   22.9430  -77.2445 H         1 UNK         0.0814 
     99 H99       -73.0359   23.1089  -78.8140 H         1 UNK         0.0814 
    100 H100      -74.7886   23.0442  -78.7006 H         1 UNK         0.0814 
    101 H101      -75.8167   24.6947  -77.1371 H         1 UNK         0.3105 
    102 H102      -76.7924   28.0240  -76.3523 H         1 UNK         0.0547 
    103 H103      -78.9604   27.4225  -77.2591 H         1 UNK         0.0837 
    104 H104      -77.8560   27.6416  -78.5970 H         1 UNK         0.0837 
    105 H105      -78.2911   26.0126  -78.1002 H         1 UNK         0.0837 
    106 H106      -77.9660   25.4886  -75.6924 H         1 UNK         0.3020 
    107 H107      -75.9062   25.0143  -72.7579 H         1 UNK         0.1245 
    108 H108      -78.8921   24.6962  -73.0968 H         1 UNK         0.0781 
    109 H109      -78.3780   26.2912  -72.7440 H         1 UNK         0.0781 
    110 H110      -77.6644   26.1433  -68.9502 H         1 UNK         0.0836 
    111 H111      -79.1294   26.5076  -69.8244 H         1 UNK         0.0836 
    112 H112      -77.6760   23.2234  -74.1073 H         1 UNK         0.3022 
    113 H113      -75.4198   21.6759  -76.2794 H         1 UNK         0.0747 
    114 H114      -75.8513   19.6047  -74.9872 H         1 UNK         0.0793 
    115 H115      -74.6774   20.6044  -74.1488 H         1 UNK         0.0793 
    116 H116      -76.3399   20.5507  -73.5798 H         1 UNK         0.0793 
    117 H117      -78.0060   20.9112  -75.4033 H         1 UNK         0.3047 
    118 H118      -79.5761   21.5284  -77.9085 H         1 UNK         0.0822 
    119 H119      -79.8514   20.4159  -75.7271 H         1 UNK         0.0807 
    120 H120      -81.3165   21.2941  -76.0932 H         1 UNK         0.0807 
    121 H121      -80.1781   21.9563  -74.9291 H         1 UNK         0.0807 
    122 H122      -80.7950   23.3346  -78.2368 H         1 UNK         0.2946 
    123 H123      -80.9263   25.8633  -78.1896 H         1 UNK         0.1144 
    124 H124      -82.7680   24.2482  -78.2190 H         1 UNK         0.0793 
    125 H125      -83.4377   25.8132  -77.8078 H         1 UNK         0.0793 
    126 H126      -83.1916   24.6014  -76.5530 H         1 UNK         0.0793 
    127 H127      -80.9767   27.6283  -76.8812 H         1 UNK         0.2896 
@<TRIPOS>BOND
     1    1    2 1    
     2    1   67 1    
     3    1   68 1    
     4    1   69 1    
     5    2    3 2    
     6    2    4 am   BACKBONE|DICT|INTERRES
     7    4    5 1    
     8    4   70 1    
     9    5    6 1    
    10    5   65 1    
    11    5   71 1    
    12    6    7 1    
    13    6   72 1    
    14    6   73 1    
    15    7    8 1    
    16    8    9 1    
    17    8   74 1    
    18    8   75 1    
    19    9   10 ar   
    20    9   14 ar   
    21   10   11 ar   
    22   10   76 1    
    23   11   12 ar   
    24   11   48 1    
    25   12   13 ar   
    26   12   77 1    
    27   13   14 ar   
    28   13   15 1    
    29   14   78 1    
    30   15   16 1    
    31   15   79 1    
    32   15   80 1    
    33   16   17 1    
    34   17   18 1    
    35   17   81 1    
    36   17   82 1    
    37   18   19 1    
    38   18   22 1    
    39   18   83 1    
    40   19   20 am   BACKBONE|DICT|INTERRES
    41   19   21 2    
    42   20   84 1    
    43   20   85 1    
    44   22   23 am   BACKBONE|DICT|INTERRES
    45   22   86 1    
    46   23   24 2    
    47   23   25 1    
    48   25   26 1    
    49   25   27 1    
    50   25   87 1    
    51   26   88 1    
    52   26   89 1    
    53   26   90 1    
    54   27   28 am   BACKBONE|DICT|INTERRES
    55   27   91 1    
    56   28   29 2    
    57   28   30 1    
    58   30   31 1    
    59   30   32 1    
    60   30   92 1    
    61   31   93 1    
    62   31   94 1    
    63   31   95 1    
    64   32   33 am   BACKBONE|DICT|INTERRES
    65   32   96 1    
    66   33   34 2    
    67   33   35 1    
    68   35   36 1    
    69   35   37 1    
    70   35   97 1    
    71   36   98 1    
    72   36   99 1    
    73   36  100 1    
    74   37   38 am   BACKBONE|DICT|INTERRES
    75   37  101 1    
    76   38   39 2    
    77   38   40 1    
    78   40   41 1    
    79   40   42 1    
    80   40  102 1    
    81   41  103 1    
    82   41  104 1    
    83   41  105 1    
    84   42   43 am   BACKBONE|DICT|INTERRES
    85   42  106 1    
    86   43   44 2    
    87   43   45 1    
    88   45   46 1    
    89   45   49 1    
    90   45  107 1    
    91   46   47 1    
    92   46  108 1    
    93   46  109 1    
    94   47   48 1    
    95   48  110 1    
    96   48  111 1    
    97   49   50 am   BACKBONE|DICT|INTERRES
    98   49  112 1    
    99   50   51 2    
   100   50   52 1    
   101   52   53 1    
   102   52   54 1    
   103   52  113 1    
   104   53  114 1    
   105   53  115 1    
   106   53  116 1    
   107   54   55 am   BACKBONE|DICT|INTERRES
   108   54  117 1    
   109   55   56 2    
   110   55   57 1    
   111   57   58 1    
   112   57   59 1    
   113   57  118 1    
   114   58  119 1    
   115   58  120 1    
   116   58  121 1    
   117   59   60 am   BACKBONE|DICT|INTERRES
   118   59  122 1    
   119   60   61 2    
   120   60   62 1    
   121   62   63 1    
   122   62   64 1    
   123   62  123 1    
   124   63  124 1    
   125   63  125 1    
   126   63  126 1    
   127   64   65 am   BACKBONE|DICT|INTERRES
   128   64  127 1    
   129   65   66 2    
@<TRIPOS>SUBSTRUCTURE
     1 UNK         1 GROUP             0       ****    0 ROOT    
