@<TRIPOS>MOLECULE
3R135
127   129    1
SMALL
USER_CHARGES


@<TRIPOS>ATOM
      1 CA        -82.4956   23.7548  -75.6231 C.3       0 UNK        -0.1998 
      2 C         -82.6624   25.2592  -75.7696 C.2       0 UNK         0.4909 
      3 O         -83.2656   25.7223  -76.7375 O.2       0 UNK        -0.5240 
      4 N         -82.1088   26.0344  -74.8302 N.am      1 UNK        -0.4739 
      5 CA        -82.1588   27.5030  -74.7537 C.3       1 UNK         0.0864 
      6 C6        -82.0275   27.9832  -73.2814 C.3       11 UNK        -0.0881 
      7 S7        -80.5914   27.2719  -72.3984 S.3       11 UNK        -0.2682 
      8 C8        -79.7931   28.7687  -71.7268 C.3       11 UNK         0.0289 
      9 C9        -78.4537   28.4653  -71.0609 C.ar      11 UNK        -0.0687 
     10 C10       -78.3364   27.4131  -70.1467 C.ar      11 UNK        -0.0823 
     11 C11       -77.1063   27.1119  -69.5567 C.ar      11 UNK        -0.0830 
     12 C12       -75.9933   27.9039  -69.8489 C.ar      11 UNK        -0.1021 
     13 C13       -76.0987   28.9752  -70.7408 C.ar      11 UNK        -0.0753 
     14 C14       -77.3285   29.2460  -71.3506 C.ar      11 UNK        -0.0933 
     15 C15       -74.8813   29.8394  -71.0314 C.3       11 UNK         0.0166 
     16 S16       -73.7821   29.0406  -72.2374 S.3       11 UNK        -0.2615 
     17 C17       -72.3462   30.1709  -72.2219 C.3       11 UNK        -0.0865 
     18 CA        -72.2672   31.0965  -73.4656 C.3       10 UNK         0.0862 
     19 C         -70.9933   31.9887  -73.3880 C.2       10 UNK         0.5551 
     20 N         -69.9773   31.7674  -74.2137 N.am      10 UNK        -0.7319 
     21 O         -70.9290   32.8934  -72.5594 O.2       10 UNK        -0.5018 
     22 N         -72.4186   30.3283  -74.7097 N.am      10 UNK        -0.4509 
     23 C         -72.5860   30.8225  -75.9421 C.2       10 UNK         0.4899 
     24 O         -72.6408   32.0268  -76.1941 O.2       10 UNK        -0.4839 
     25 CA        -72.7553   29.7996  -77.0842 C.3       9 UNK         0.0222 
     26 CB        -71.9941   30.2117  -78.3621 C.3       9 UNK        -0.1966 
     27 N         -72.4522   28.4133  -76.6950 N.am      9 UNK        -0.4218 
     28 C         -71.2580   27.8861  -76.3719 C.2       9 UNK         0.5020 
     29 O         -70.2051   28.5246  -76.3940 O.2       9 UNK        -0.5274 
     30 CA        -71.2197   26.4202  -75.8872 C.3       8 UNK         0.0270 
     31 CB        -70.7903   26.3577  -74.4105 C.3       8 UNK        -0.1976 
     32 N         -72.4948   25.7134  -76.0279 N.am      8 UNK        -0.4313 
     33 C         -73.0283   25.2941  -77.1833 C.2       8 UNK         0.5041 
     34 O         -72.4415   25.3472  -78.2643 O.2       8 UNK        -0.5577 
     35 CA        -74.4762   24.7650  -77.1350 C.3       7 UNK         0.0284 
     36 CB        -74.4889   23.2326  -77.2401 C.3       7 UNK        -0.1958 
     37 N         -75.2429   25.1948  -75.9530 N.am      7 UNK        -0.4454 
     38 C         -75.5374   26.4750  -75.6676 C.2       7 UNK         0.5089 
     39 O         -75.1579   27.4147  -76.3669 O.2       7 UNK        -0.5125 
     40 CA        -76.3622   26.7886  -74.4067 C.3       6 UNK         0.0408 
     41 CB        -77.6191   27.5867  -74.7732 C.3       6 UNK        -0.1791 
     42 N         -76.7483   25.6072  -73.6329 N.am      6 UNK        -0.4762 
     43 C         -75.9633   25.0015  -72.7283 C.2       6 UNK         0.5007 
     44 O         -74.8109   25.3604  -72.4847 O.2       6 UNK        -0.5032 
     45 CA        -76.5266   23.7315  -72.0443 C.3       5 UNK         0.0783 
     46 C46       -77.2589   24.0387  -70.7142 C.3       11 UNK        -0.0857 
     47 S47       -76.1237   24.5138  -69.3642 S.3       11 UNK        -0.2512 
     48 C48       -76.9826   25.9314  -68.6039 C.3       11 UNK         0.0225 
     49 N         -77.3855   22.9520  -72.9438 N.am      5 UNK        -0.4615 
     50 C         -76.9727   22.3843  -74.0834 C.2       4 UNK         0.5053 
     51 O         -75.8046   22.4125  -74.4679 O.2       4 UNK        -0.5105 
     52 CA        -78.0314   21.7243  -74.9833 C.3       4 UNK         0.0263 
     53 CB        -79.3745   21.4254  -74.2766 C.3       4 UNK        -0.1981 
     54 N         -78.2332   22.5231  -76.1985 N.am      4 UNK        -0.4224 
     55 C         -78.6832   23.7848  -76.2618 C.2       3 UNK         0.4895 
     56 O         -79.0581   24.4310  -75.2779 O.2       3 UNK        -0.5091 
     57 CA        -78.7090   24.4387  -77.6524 C.3       3 UNK         0.0250 
     58 CB        -79.4050   23.5587  -78.7108 C.3       3 UNK        -0.1996 
     59 N         -79.4023   25.7164  -77.5402 N.am      3 UNK        -0.4254 
     60 C         -79.2712   26.7828  -78.3375 C.2       2 UNK         0.5004 
     61 O         -78.5160   26.8159  -79.3096 O.2       2 UNK        -0.5226 
     62 CA        -80.1406   28.0132  -78.0055 C.3       2 UNK         0.0269 
     63 CB        -80.8767   28.5287  -79.2550 C.3       2 UNK        -0.1926 
     64 N         -81.1335   27.6962  -76.9739 N.am      2 UNK        -0.4687 
     65 C         -81.1578   28.1766  -75.7256 C.2       1 UNK         0.5165 
     66 O         -80.4225   29.0856  -75.3389 O.2       1 UNK        -0.5079 
     67 H67       -81.9108   23.4969  -74.7407 H         1 UNK         0.0900 
     68 H68       -81.9892   23.3444  -76.4956 H         1 UNK         0.0900 
     69 H69       -83.4703   23.2757  -75.5370 H         1 UNK         0.0900 
     70 H70       -81.5758   25.6031  -74.0864 H         1 UNK         0.2959 
     71 H71       -83.1459   27.8196  -75.0985 H         1 UNK         0.1079 
     72 H72       -82.9214   27.6875  -72.7302 H         1 UNK         0.0837 
     73 H73       -82.0069   29.0733  -73.2270 H         1 UNK         0.0837 
     74 H74       -80.4568   29.2345  -70.9974 H         1 UNK         0.0685 
     75 H75       -79.6599   29.4871  -72.5375 H         1 UNK         0.0685 
     76 H76       -79.2038   26.8109  -69.9132 H         1 UNK         0.1434 
     77 H77       -75.0395   27.6784  -69.3914 H         1 UNK         0.1329 
     78 H78       -77.4086   30.0672  -72.0497 H         1 UNK         0.1335 
     79 H79       -75.1835   30.8168  -71.4109 H         1 UNK         0.0680 
     80 H80       -74.3367   30.0199  -70.1033 H         1 UNK         0.0680 
     81 H81       -72.3617   30.7656  -71.3064 H         1 UNK         0.1032 
     82 H82       -71.4479   29.5537  -72.1569 H         1 UNK         0.1032 
     83 H83       -73.1183   31.7786  -73.4213 H         1 UNK         0.0461 
     84 H84       -69.1565   32.3494  -74.1586 H         1 UNK         0.3453 
     85 H85       -70.0279   31.0242  -74.8937 H         1 UNK         0.3453 
     86 H86       -72.4135   29.3260  -74.6016 H         1 UNK         0.2984 
     87 H87       -73.8190   29.8043  -77.3262 H         1 UNK         0.0554 
     88 H88       -72.1290   29.4797  -79.1582 H         1 UNK         0.0847 
     89 H89       -70.9243   30.3210  -78.1828 H         1 UNK         0.0847 
     90 H90       -72.3553   31.1689  -78.7399 H         1 UNK         0.0847 
     91 H91       -73.2758   27.8216  -76.6149 H         1 UNK         0.3141 
     92 H92       -70.4697   25.9006  -76.4872 H         1 UNK         0.0743 
     93 H93       -69.8233   26.8404  -74.2613 H         1 UNK         0.0784 
     94 H94       -71.5079   26.8576  -73.7580 H         1 UNK         0.0784 
     95 H95       -70.6889   25.3270  -74.0700 H         1 UNK         0.0784 
     96 H96       -73.0498   25.6094  -75.1899 H         1 UNK         0.3213 
     97 H97       -74.9872   25.1664  -78.0129 H         1 UNK         0.0855 
     98 H98       -73.9819   22.8998  -78.1469 H         1 UNK         0.0814 
     99 H99       -75.5048   22.8418  -77.2786 H         1 UNK         0.0814 
    100 H100      -73.9792   22.7673  -76.3956 H         1 UNK         0.0814 
    101 H101      -75.5476   24.4683  -75.3156 H         1 UNK         0.3105 
    102 H102      -75.7437   27.4306  -73.7777 H         1 UNK         0.0547 
    103 H103      -78.3194   26.9935  -75.3561 H         1 UNK         0.0837 
    104 H104      -78.1376   27.9291  -73.8817 H         1 UNK         0.0837 
    105 H105      -77.3762   28.4755  -75.3568 H         1 UNK         0.0837 
    106 H106      -77.6604   25.2130  -73.8381 H         1 UNK         0.3020 
    107 H107      -75.6666   23.0978  -71.8142 H         1 UNK         0.1245 
    108 H108      -77.7887   23.1488  -70.3702 H         1 UNK         0.0781 
    109 H109      -78.0280   24.7957  -70.8669 H         1 UNK         0.0781 
    110 H110      -76.4309   26.2424  -67.7156 H         1 UNK         0.0836 
    111 H111      -77.9645   25.6095  -68.2532 H         1 UNK         0.0836 
    112 H112      -78.3684   22.9150  -72.7176 H         1 UNK         0.3022 
    113 H113      -77.6090   20.7703  -75.3026 H         1 UNK         0.0747 
    114 H114      -80.0583   20.9053  -74.9475 H         1 UNK         0.0793 
    115 H115      -79.2250   20.7789  -73.4108 H         1 UNK         0.0793 
    116 H116      -79.8809   22.3265  -73.9313 H         1 UNK         0.0793 
    117 H117      -77.9343   22.0806  -77.0560 H         1 UNK         0.3047 
    118 H118      -77.6744   24.6220  -77.9499 H         1 UNK         0.0822 
    119 H119      -78.8677   22.6246  -78.8758 H         1 UNK         0.0807 
    120 H120      -79.4550   24.0651  -79.6750 H         1 UNK         0.0807 
    121 H121      -80.4245   23.3060  -78.4180 H         1 UNK         0.0807 
    122 H122      -79.9681   25.8014  -76.7056 H         1 UNK         0.2946 
    123 H123      -79.4612   28.7935  -77.6551 H         1 UNK         0.1144 
    124 H124      -80.1722   28.8190  -80.0356 H         1 UNK         0.0793 
    125 H125      -81.4798   29.4068  -79.0238 H         1 UNK         0.0793 
    126 H126      -81.5370   27.7692  -79.6754 H         1 UNK         0.0793 
    127 H127      -81.8106   26.9728  -77.2019 H         1 UNK         0.2896 
@<TRIPOS>BOND
     1    1    2 1    
     2    1   67 1    
     3    1   68 1    
     4    1   69 1    
     5    2    3 2    
     6    2    4 am   BACKBONE|DICT|INTERRES
     7    4    5 1    
     8    4   70 1    
     9    5    6 1    
    10    5   65 1    
    11    5   71 1    
    12    6    7 1    
    13    6   72 1    
    14    6   73 1    
    15    7    8 1    
    16    8    9 1    
    17    8   74 1    
    18    8   75 1    
    19    9   10 ar   
    20    9   14 ar   
    21   10   11 ar   
    22   10   76 1    
    23   11   12 ar   
    24   11   48 1    
    25   12   13 ar   
    26   12   77 1    
    27   13   14 ar   
    28   13   15 1    
    29   14   78 1    
    30   15   16 1    
    31   15   79 1    
    32   15   80 1    
    33   16   17 1    
    34   17   18 1    
    35   17   81 1    
    36   17   82 1    
    37   18   19 1    
    38   18   22 1    
    39   18   83 1    
    40   19   20 am   BACKBONE|DICT|INTERRES
    41   19   21 2    
    42   20   84 1    
    43   20   85 1    
    44   22   23 am   BACKBONE|DICT|INTERRES
    45   22   86 1    
    46   23   24 2    
    47   23   25 1    
    48   25   26 1    
    49   25   27 1    
    50   25   87 1    
    51   26   88 1    
    52   26   89 1    
    53   26   90 1    
    54   27   28 am   BACKBONE|DICT|INTERRES
    55   27   91 1    
    56   28   29 2    
    57   28   30 1    
    58   30   31 1    
    59   30   32 1    
    60   30   92 1    
    61   31   93 1    
    62   31   94 1    
    63   31   95 1    
    64   32   33 am   BACKBONE|DICT|INTERRES
    65   32   96 1    
    66   33   34 2    
    67   33   35 1    
    68   35   36 1    
    69   35   37 1    
    70   35   97 1    
    71   36   98 1    
    72   36   99 1    
    73   36  100 1    
    74   37   38 am   BACKBONE|DICT|INTERRES
    75   37  101 1    
    76   38   39 2    
    77   38   40 1    
    78   40   41 1    
    79   40   42 1    
    80   40  102 1    
    81   41  103 1    
    82   41  104 1    
    83   41  105 1    
    84   42   43 am   BACKBONE|DICT|INTERRES
    85   42  106 1    
    86   43   44 2    
    87   43   45 1    
    88   45   46 1    
    89   45   49 1    
    90   45  107 1    
    91   46   47 1    
    92   46  108 1    
    93   46  109 1    
    94   47   48 1    
    95   48  110 1    
    96   48  111 1    
    97   49   50 am   BACKBONE|DICT|INTERRES
    98   49  112 1    
    99   50   51 2    
   100   50   52 1    
   101   52   53 1    
   102   52   54 1    
   103   52  113 1    
   104   53  114 1    
   105   53  115 1    
   106   53  116 1    
   107   54   55 am   BACKBONE|DICT|INTERRES
   108   54  117 1    
   109   55   56 2    
   110   55   57 1    
   111   57   58 1    
   112   57   59 1    
   113   57  118 1    
   114   58  119 1    
   115   58  120 1    
   116   58  121 1    
   117   59   60 am   BACKBONE|DICT|INTERRES
   118   59  122 1    
   119   60   61 2    
   120   60   62 1    
   121   62   63 1    
   122   62   64 1    
   123   62  123 1    
   124   63  124 1    
   125   63  125 1    
   126   63  126 1    
   127   64   65 am   BACKBONE|DICT|INTERRES
   128   64  127 1    
   129   65   66 2    
@<TRIPOS>SUBSTRUCTURE
     1 UNK         1 GROUP             0       ****    0 ROOT    
