@<TRIPOS>MOLECULE
3R135
127   129    1
SMALL
USER_CHARGES


@<TRIPOS>ATOM
      1 CA        -80.0852   27.9180  -78.7750 C.3       0 UNK        -0.1998 
      2 C         -80.6376   29.2973  -78.4189 C.2       0 UNK         0.4909 
      3 O         -81.2375   29.9438  -79.2756 O.2       0 UNK        -0.5240 
      4 N         -80.4553   29.8015  -77.1893 N.am      1 UNK        -0.4739 
      5 CA        -79.8472   29.1292  -76.0352 C.3       1 UNK         0.0864 
      6 C6        -79.4523   30.1522  -74.9407 C.3       11 UNK        -0.0881 
      7 S7        -78.0415   29.5767  -73.9407 S.3       11 UNK        -0.2682 
      8 C8        -78.8769   29.1257  -72.3892 C.3       11 UNK         0.0289 
      9 C9        -77.9017   28.4595  -71.4353 C.ar      11 UNK        -0.0687 
     10 C10       -77.5126   27.1353  -71.6503 C.ar      11 UNK        -0.0823 
     11 C11       -76.5852   26.5210  -70.8051 C.ar      11 UNK        -0.0830 
     12 C12       -76.0489   27.2414  -69.7333 C.ar      11 UNK        -0.1021 
     13 C13       -76.4362   28.5657  -69.5035 C.ar      11 UNK        -0.0753 
     14 C14       -77.3734   29.1655  -70.3516 C.ar      11 UNK        -0.0933 
     15 C15       -75.8315   29.3538  -68.3494 C.3       11 UNK         0.0166 
     16 S16       -74.9574   30.8500  -68.9164 S.3       11 UNK        -0.2615 
     17 C17       -73.5949   30.1499  -69.9140 C.3       11 UNK        -0.0865 
     18 CA        -73.9134   30.0388  -71.4299 C.3       10 UNK         0.0862 
     19 C         -74.1970   31.4124  -72.0974 C.2       10 UNK         0.5551 
     20 N         -75.3942   31.6185  -72.6285 N.am      10 UNK        -0.7319 
     21 O         -73.3384   32.2923  -72.1201 O.2       10 UNK        -0.5018 
     22 N         -72.8320   29.3371  -72.1310 N.am      10 UNK        -0.4509 
     23 C         -72.9671   28.7736  -73.3354 C.2       10 UNK         0.4899 
     24 O         -74.0373   28.7025  -73.9481 O.2       10 UNK        -0.4839 
     25 CA        -71.6932   28.1880  -73.9626 C.3       9 UNK         0.0222 
     26 CB        -71.1815   26.9555  -73.1947 C.3       9 UNK        -0.1966 
     27 N         -72.0231   27.8130  -75.3295 N.am      9 UNK        -0.4218 
     28 C         -71.2386   27.8752  -76.4086 C.2       9 UNK         0.5020 
     29 O         -70.0378   28.1472  -76.3730 O.2       9 UNK        -0.5274 
     30 CA        -71.9184   27.5989  -77.7641 C.3       8 UNK         0.0270 
     31 CB        -71.5180   26.2148  -78.3009 C.3       8 UNK        -0.1976 
     32 N         -73.3825   27.6824  -77.6749 N.am      8 UNK        -0.4313 
     33 C         -74.0772   28.8319  -77.6923 C.2       8 UNK         0.5041 
     34 O         -73.5496   29.9270  -77.8938 O.2       8 UNK        -0.5577 
     35 CA        -75.5923   28.7794  -77.3896 C.3       7 UNK         0.0284 
     36 CB        -76.4069   29.7059  -78.3184 C.3       7 UNK        -0.1958 
     37 N         -76.1618   27.4254  -77.3453 N.am      7 UNK        -0.4454 
     38 C         -76.2707   26.5417  -78.3498 C.2       7 UNK         0.5089 
     39 O         -75.9790   26.7903  -79.5195 O.2       7 UNK        -0.5125 
     40 CA        -76.7627   25.1305  -77.9628 C.3       6 UNK         0.0408 
     41 CB        -76.2762   24.0454  -78.9448 C.3       6 UNK        -0.1791 
     42 N         -76.4425   24.7438  -76.5801 N.am      6 UNK        -0.4762 
     43 C         -75.2284   24.6765  -76.0082 C.2       6 UNK         0.5007 
     44 O         -74.1939   25.0096  -76.5862 O.2       6 UNK        -0.5032 
     45 CA        -75.1420   24.2052  -74.5442 C.3       5 UNK         0.0783 
     46 C46       -75.0001   25.4252  -73.6034 C.3       11 UNK        -0.0857 
     47 S47       -74.5666   24.9554  -71.8949 S.3       11 UNK        -0.2512 
     48 C48       -76.1706   25.0770  -71.0435 C.3       11 UNK         0.0225 
     49 N         -76.2850   23.3552  -74.1848 N.am      5 UNK        -0.4615 
     50 C         -76.1842   22.0908  -73.7508 C.2       4 UNK         0.5053 
     51 O         -75.1140   21.5034  -73.5896 O.2       4 UNK        -0.5105 
     52 CA        -77.4932   21.3379  -73.4393 C.3       4 UNK         0.0263 
     53 CB        -77.8300   21.4326  -71.9422 C.3       4 UNK        -0.1981 
     54 N         -78.6409   21.8027  -74.2212 N.am      4 UNK        -0.4224 
     55 C         -78.7659   21.6649  -75.5482 C.2       3 UNK         0.4895 
     56 O         -77.9649   21.0450  -76.2484 O.2       3 UNK        -0.5091 
     57 CA        -79.9735   22.3434  -76.2230 C.3       3 UNK         0.0250 
     58 CB        -81.0582   21.3009  -76.5412 C.3       3 UNK        -0.1996 
     59 N         -80.5887   23.4649  -75.4953 N.am      3 UNK        -0.4254 
     60 C         -79.9620   24.5712  -75.0739 C.2       2 UNK         0.5004 
     61 O         -78.7355   24.7142  -75.0693 O.2       2 UNK        -0.5226 
     62 CA        -80.8402   25.7164  -74.5660 C.3       2 UNK         0.0269 
     63 CB        -80.9987   25.6562  -73.0379 C.3       2 UNK        -0.1926 
     64 N         -80.1761   26.9576  -74.9535 N.am      2 UNK        -0.4687 
     65 C         -80.7772   28.0264  -75.4834 C.2       1 UNK         0.5165 
     66 O         -82.0014   28.1562  -75.5596 O.2       1 UNK        -0.5079 
     67 H67       -79.0240   27.8426  -78.5458 H         1 UNK         0.0900 
     68 H68       -80.1988   27.7297  -79.8425 H         1 UNK         0.0900 
     69 H69       -80.6215   27.1321  -78.2448 H         1 UNK         0.0900 
     70 H70       -80.8580   30.7057  -76.9889 H         1 UNK         0.2959 
     71 H71       -78.9326   28.6518  -76.3907 H         1 UNK         0.1079 
     72 H72       -79.1288   31.0864  -75.4033 H         1 UNK         0.0837 
     73 H73       -80.2995   30.4193  -74.3052 H         1 UNK         0.0837 
     74 H74       -79.3091   30.0203  -71.9381 H         1 UNK         0.0685 
     75 H75       -79.7069   28.4485  -72.5926 H         1 UNK         0.0685 
     76 H76       -77.9198   26.5909  -72.4903 H         1 UNK         0.1434 
     77 H77       -75.3235   26.7699  -69.0843 H         1 UNK         0.1329 
     78 H78       -77.6674   30.1923  -70.1816 H         1 UNK         0.1335 
     79 H79       -76.6301   29.6499  -67.6680 H         1 UNK         0.0680 
     80 H80       -75.1440   28.7369  -67.7686 H         1 UNK         0.0680 
     81 H81       -73.3440   29.1655  -69.5156 H         1 UNK         0.1032 
     82 H82       -72.7091   30.7683  -69.7581 H         1 UNK         0.1032 
     83 H83       -74.8058   29.4200  -71.5329 H         1 UNK         0.0461 
     84 H84       -75.5954   32.5062  -73.0597 H         1 UNK         0.3453 
     85 H85       -76.0833   30.8812  -72.6480 H         1 UNK         0.3453 
     86 H86       -71.9161   29.3870  -71.7103 H         1 UNK         0.2984 
     87 H87       -70.9268   28.9657  -73.9700 H         1 UNK         0.0554 
     88 H88       -70.2906   26.5400  -73.6658 H         1 UNK         0.0847 
     89 H89       -71.9309   26.1653  -73.1483 H         1 UNK         0.0847 
     90 H90       -70.9131   27.2100  -72.1690 H         1 UNK         0.0847 
     91 H91       -73.0135   27.6621  -75.4721 H         1 UNK         0.3141 
     92 H92       -71.5632   28.3511  -78.4716 H         1 UNK         0.0743 
     93 H93       -71.7866   25.4169  -77.6079 H         1 UNK         0.0784 
     94 H94       -71.9973   26.0050  -79.2573 H         1 UNK         0.0784 
     95 H95       -70.4402   26.1569  -78.4583 H         1 UNK         0.0784 
     96 H96       -73.8693   26.8096  -77.4929 H         1 UNK         0.3213 
     97 H97       -75.6938   29.1721  -76.3759 H         1 UNK         0.0855 
     98 H98       -76.0503   30.7346  -78.2548 H         1 UNK         0.0814 
     99 H99       -77.4603   29.7209  -78.0447 H         1 UNK         0.0814 
    100 H100      -76.3328   29.4050  -79.3634 H         1 UNK         0.0814 
    101 H101      -76.4099   27.0934  -76.4242 H         1 UNK         0.3105 
    102 H102      -77.8516   25.1649  -78.0216 H         1 UNK         0.0547 
    103 H103      -76.6266   24.2454  -79.9581 H         1 UNK         0.0837 
    104 H104      -75.1875   23.9932  -78.9813 H         1 UNK         0.0837 
    105 H105      -76.6499   23.0609  -78.6631 H         1 UNK         0.0837 
    106 H106      -77.2574   24.5489  -76.0007 H         1 UNK         0.3020 
    107 H107      -74.2159   23.6288  -74.4826 H         1 UNK         0.1245 
    108 H108      -75.9022   26.0364  -73.6152 H         1 UNK         0.0781 
    109 H109      -74.1985   26.0735  -73.9560 H         1 UNK         0.0781 
    110 H110      -76.1011   24.5566  -70.0872 H         1 UNK         0.0836 
    111 H111      -76.9303   24.5496  -71.6206 H         1 UNK         0.0836 
    112 H112      -77.2079   23.7568  -74.3122 H         1 UNK         0.3022 
    113 H113      -77.3262   20.2865  -73.6834 H         1 UNK         0.0747 
    114 H114      -78.6734   20.7911  -71.6859 H         1 UNK         0.0793 
    115 H115      -76.9854   21.1136  -71.3296 H         1 UNK         0.0793 
    116 H116      -78.0825   22.4507  -71.6459 H         1 UNK         0.0793 
    117 H117      -79.3522   22.3222  -73.7284 H         1 UNK         0.3047 
    118 H118      -79.6072   22.7479  -77.1690 H         1 UNK         0.0822 
    119 H119      -81.8601   21.7303  -77.1420 H         1 UNK         0.0807 
    120 H120      -81.5003   20.8896  -75.6329 H         1 UNK         0.0807 
    121 H121      -80.6457   20.4656  -77.1095 H         1 UNK         0.0807 
    122 H122      -81.5954   23.4311  -75.4174 H         1 UNK         0.2946 
    123 H123      -81.8226   25.6485  -75.0397 H         1 UNK         0.1144 
    124 H124      -81.5350   24.7554  -72.7371 H         1 UNK         0.0793 
    125 H125      -81.5664   26.5093  -72.6660 H         1 UNK         0.0793 
    126 H126      -80.0366   25.6465  -72.5266 H         1 UNK         0.0793 
    127 H127      -79.1662   26.9000  -74.9483 H         1 UNK         0.2896 
@<TRIPOS>BOND
     1    1    2 1    
     2    1   67 1    
     3    1   68 1    
     4    1   69 1    
     5    2    3 2    
     6    2    4 am   BACKBONE|DICT|INTERRES
     7    4    5 1    
     8    4   70 1    
     9    5    6 1    
    10    5   65 1    
    11    5   71 1    
    12    6    7 1    
    13    6   72 1    
    14    6   73 1    
    15    7    8 1    
    16    8    9 1    
    17    8   74 1    
    18    8   75 1    
    19    9   10 ar   
    20    9   14 ar   
    21   10   11 ar   
    22   10   76 1    
    23   11   12 ar   
    24   11   48 1    
    25   12   13 ar   
    26   12   77 1    
    27   13   14 ar   
    28   13   15 1    
    29   14   78 1    
    30   15   16 1    
    31   15   79 1    
    32   15   80 1    
    33   16   17 1    
    34   17   18 1    
    35   17   81 1    
    36   17   82 1    
    37   18   19 1    
    38   18   22 1    
    39   18   83 1    
    40   19   20 am   BACKBONE|DICT|INTERRES
    41   19   21 2    
    42   20   84 1    
    43   20   85 1    
    44   22   23 am   BACKBONE|DICT|INTERRES
    45   22   86 1    
    46   23   24 2    
    47   23   25 1    
    48   25   26 1    
    49   25   27 1    
    50   25   87 1    
    51   26   88 1    
    52   26   89 1    
    53   26   90 1    
    54   27   28 am   BACKBONE|DICT|INTERRES
    55   27   91 1    
    56   28   29 2    
    57   28   30 1    
    58   30   31 1    
    59   30   32 1    
    60   30   92 1    
    61   31   93 1    
    62   31   94 1    
    63   31   95 1    
    64   32   33 am   BACKBONE|DICT|INTERRES
    65   32   96 1    
    66   33   34 2    
    67   33   35 1    
    68   35   36 1    
    69   35   37 1    
    70   35   97 1    
    71   36   98 1    
    72   36   99 1    
    73   36  100 1    
    74   37   38 am   BACKBONE|DICT|INTERRES
    75   37  101 1    
    76   38   39 2    
    77   38   40 1    
    78   40   41 1    
    79   40   42 1    
    80   40  102 1    
    81   41  103 1    
    82   41  104 1    
    83   41  105 1    
    84   42   43 am   BACKBONE|DICT|INTERRES
    85   42  106 1    
    86   43   44 2    
    87   43   45 1    
    88   45   46 1    
    89   45   49 1    
    90   45  107 1    
    91   46   47 1    
    92   46  108 1    
    93   46  109 1    
    94   47   48 1    
    95   48  110 1    
    96   48  111 1    
    97   49   50 am   BACKBONE|DICT|INTERRES
    98   49  112 1    
    99   50   51 2    
   100   50   52 1    
   101   52   53 1    
   102   52   54 1    
   103   52  113 1    
   104   53  114 1    
   105   53  115 1    
   106   53  116 1    
   107   54   55 am   BACKBONE|DICT|INTERRES
   108   54  117 1    
   109   55   56 2    
   110   55   57 1    
   111   57   58 1    
   112   57   59 1    
   113   57  118 1    
   114   58  119 1    
   115   58  120 1    
   116   58  121 1    
   117   59   60 am   BACKBONE|DICT|INTERRES
   118   59  122 1    
   119   60   61 2    
   120   60   62 1    
   121   62   63 1    
   122   62   64 1    
   123   62  123 1    
   124   63  124 1    
   125   63  125 1    
   126   63  126 1    
   127   64   65 am   BACKBONE|DICT|INTERRES
   128   64  127 1    
   129   65   66 2    
@<TRIPOS>SUBSTRUCTURE
     1 UNK         1 GROUP             0       ****    0 ROOT    
