@<TRIPOS>MOLECULE
3R135
127   129    1
SMALL
USER_CHARGES


@<TRIPOS>ATOM
      1 CA        -80.0734   22.0130  -71.5577 C.3       0 UNK        -0.1998 
      2 C         -80.4805   23.3588  -72.1374 C.2       0 UNK         0.4909 
      3 O         -79.7082   23.9430  -72.8962 O.2       0 UNK        -0.5240 
      4 N         -81.6855   23.8356  -71.7867 N.am      1 UNK        -0.4739 
      5 CA        -82.3165   25.0997  -72.2013 C.3       1 UNK         0.0864 
      6 C6        -81.9390   26.3074  -71.2881 C.3       11 UNK        -0.0881 
      7 S7        -80.1932   26.8535  -71.3368 S.3       11 UNK        -0.2682 
      8 C8        -80.3842   28.6596  -71.2421 C.3       11 UNK         0.0289 
      9 C9        -79.0561   29.3717  -71.4501 C.ar      11 UNK        -0.0687 
     10 C10       -78.8242   30.1107  -72.6150 C.ar      11 UNK        -0.0823 
     11 C11       -77.6166   30.7935  -72.7941 C.ar      11 UNK        -0.0830 
     12 C12       -76.6319   30.7193  -71.8050 C.ar      11 UNK        -0.1021 
     13 C13       -76.8495   29.9782  -70.6397 C.ar      11 UNK        -0.0753 
     14 C14       -78.0662   29.3132  -70.4642 C.ar      11 UNK        -0.0933 
     15 C15       -75.7749   29.9114  -69.5643 C.3       11 UNK         0.0166 
     16 S16       -74.9800   28.2737  -69.4556 S.3       11 UNK        -0.2615 
     17 C17       -74.3819   27.9945  -71.1584 C.3       11 UNK        -0.0865 
     18 CA        -73.1637   28.8629  -71.5574 C.3       10 UNK         0.0862 
     19 C         -71.8510   28.3641  -70.8888 C.2       10 UNK         0.5551 
     20 N         -71.4707   28.9360  -69.7548 N.am      10 UNK        -0.7319 
     21 O         -71.1932   27.4471  -71.3783 O.2       10 UNK        -0.5018 
     22 N         -73.0466   28.9210  -73.0197 N.am      10 UNK        -0.4509 
     23 C         -72.2417   29.7591  -73.6838 C.2       10 UNK         0.4899 
     24 O         -71.5975   30.6625  -73.1482 O.2       10 UNK        -0.4839 
     25 CA        -72.1091   29.5075  -75.1909 C.3       9 UNK         0.0222 
     26 CB        -71.0918   30.4362  -75.8824 C.3       9 UNK        -0.1966 
     27 N         -71.7304   28.1105  -75.4015 N.am      9 UNK        -0.4218 
     28 C         -72.2057   27.3293  -76.3749 C.2       9 UNK         0.5020 
     29 O         -72.9714   27.7289  -77.2548 O.2       9 UNK        -0.5274 
     30 CA        -71.7685   25.8555  -76.3732 C.3       8 UNK         0.0270 
     31 CB        -71.6497   25.2435  -74.9604 C.3       8 UNK        -0.1976 
     32 N         -72.7451   25.1135  -77.1612 N.am      8 UNK        -0.4313 
     33 C         -72.5494   23.9738  -77.8290 C.2       8 UNK         0.5041 
     34 O         -71.4847   23.3539  -77.8269 O.2       8 UNK        -0.5577 
     35 CA        -73.7439   23.4215  -78.6303 C.3       7 UNK         0.0284 
     36 CB        -74.2727   22.1307  -77.9819 C.3       7 UNK        -0.1958 
     37 N         -74.8506   24.3783  -78.7344 N.am      7 UNK        -0.4454 
     38 C         -74.9480   25.3480  -79.6547 C.2       7 UNK         0.5089 
     39 O         -74.1260   25.5226  -80.5542 O.2       7 UNK        -0.5125 
     40 CA        -76.1499   26.2963  -79.5339 C.3       6 UNK         0.0408 
     41 CB        -77.4460   25.5966  -79.9750 C.3       6 UNK        -0.1791 
     42 N         -76.2915   26.7681  -78.1546 N.am      6 UNK        -0.4762 
     43 C         -76.1363   28.0390  -77.7500 C.2       6 UNK         0.5007 
     44 O         -75.9255   28.9724  -78.5266 O.2       6 UNK        -0.5032 
     45 CA        -76.2171   28.3302  -76.2328 C.3       5 UNK         0.0783 
     46 C46       -77.1301   29.5452  -75.9009 C.3       11 UNK        -0.0857 
     47 S47       -76.1725   30.9145  -75.1722 S.3       11 UNK        -0.2512 
     48 C48       -77.3874   31.6486  -74.0332 C.3       11 UNK         0.0225 
     49 N         -76.6236   27.1398  -75.4842 N.am      5 UNK        -0.4615 
     50 C         -75.8600   26.4755  -74.6080 C.2       4 UNK         0.5053 
     51 O         -74.7423   26.8558  -74.2579 O.2       4 UNK        -0.5105 
     52 CA        -76.4138   25.1585  -74.0225 C.3       4 UNK         0.0263 
     53 CB        -76.6938   25.3125  -72.5198 C.3       4 UNK        -0.1981 
     54 N         -77.6272   24.6568  -74.6768 N.am      4 UNK        -0.4224 
     55 C         -77.7146   24.2486  -75.9496 C.2       3 UNK         0.4895 
     56 O         -76.7568   24.2178  -76.7223 O.2       3 UNK        -0.5091 
     57 CA        -79.1180   23.9125  -76.4801 C.3       3 UNK         0.0250 
     58 CB        -79.4925   22.4596  -76.1505 C.3       3 UNK        -0.1996 
     59 N         -80.1595   24.8201  -75.9860 N.am      3 UNK        -0.4254 
     60 C         -80.1784   26.1519  -76.1403 C.2       2 UNK         0.5004 
     61 O         -79.2991   26.7784  -76.7313 O.2       2 UNK        -0.5226 
     62 CA        -81.3392   26.9338  -75.4993 C.3       2 UNK         0.0269 
     63 CB        -82.5729   26.9667  -76.4221 C.3       2 UNK        -0.1926 
     64 N         -81.6754   26.4932  -74.1375 N.am      2 UNK        -0.4687 
     65 C         -82.2281   25.3432  -73.7277 C.2       1 UNK         0.5165 
     66 O         -82.6333   24.4684  -74.4968 O.2       1 UNK        -0.5079 
     67 H67       -79.8980   21.2981  -72.3610 H         1 UNK         0.0900 
     68 H68       -79.1511   22.1173  -70.9870 H         1 UNK         0.0900 
     69 H69       -80.8372   21.6030  -70.8974 H         1 UNK         0.0900 
     70 H70       -82.2596   23.2656  -71.1816 H         1 UNK         0.2959 
     71 H71       -83.3822   24.9316  -72.0358 H         1 UNK         0.1079 
     72 H72       -82.5917   27.1521  -71.5158 H         1 UNK         0.0837 
     73 H73       -82.1651   26.0520  -70.2518 H         1 UNK         0.0837 
     74 H74       -81.1119   28.9899  -71.9849 H         1 UNK         0.0685 
     75 H75       -80.7928   28.9275  -70.2666 H         1 UNK         0.0685 
     76 H76       -79.5908   30.1690  -73.3755 H         1 UNK         0.1434 
     77 H77       -75.6961   31.2435  -71.9447 H         1 UNK         0.1329 
     78 H78       -78.2401   28.7417  -69.5625 H         1 UNK         0.1335 
     79 H79       -76.2230   30.1455  -68.5977 H         1 UNK         0.0680 
     80 H80       -75.0116   30.6722  -69.7322 H         1 UNK         0.0680 
     81 H81       -75.2153   28.1697  -71.8404 H         1 UNK         0.1032 
     82 H82       -74.1367   26.9374  -71.2693 H         1 UNK         0.1032 
     83 H83       -73.3480   29.8863  -71.2263 H         1 UNK         0.0461 
     84 H84       -70.6280   28.6177  -69.3026 H         1 UNK         0.3453 
     85 H85       -72.0186   29.6707  -69.3354 H         1 UNK         0.3453 
     86 H86       -73.5355   28.1924  -73.5343 H         1 UNK         0.2984 
     87 H87       -73.0936   29.7006  -75.6213 H         1 UNK         0.0554 
     88 H88       -71.3611   31.4839  -75.7427 H         1 UNK         0.0847 
     89 H89       -71.0561   30.2527  -76.9563 H         1 UNK         0.0847 
     90 H90       -70.0855   30.2995  -75.4849 H         1 UNK         0.0847 
     91 H91       -71.1348   27.7027  -74.6932 H         1 UNK         0.3141 
     92 H92       -70.7982   25.8045  -76.8712 H         1 UNK         0.0743 
     93 H93       -72.5807   25.3344  -74.4005 H         1 UNK         0.0784 
     94 H94       -71.3987   24.1839  -75.0099 H         1 UNK         0.0784 
     95 H95       -70.8640   25.7240  -74.3767 H         1 UNK         0.0784 
     96 H96       -73.6146   25.6103  -77.3060 H         1 UNK         0.3213 
     97 H97       -73.3833   23.1795  -79.6325 H         1 UNK         0.0855 
     98 H98       -74.6357   22.3084  -76.9686 H         1 UNK         0.0814 
     99 H99       -73.4895   21.3740  -77.9203 H         1 UNK         0.0814 
    100 H100      -75.0914   21.7025  -78.5605 H         1 UNK         0.0814 
    101 H101      -75.5810   24.2909  -78.0276 H         1 UNK         0.3105 
    102 H102      -75.9768   27.1355  -80.2104 H         1 UNK         0.0547 
    103 H103      -78.3036   26.2642  -79.8892 H         1 UNK         0.0837 
    104 H104      -77.6550   24.7085  -79.3789 H         1 UNK         0.0837 
    105 H105      -77.3818   25.2810  -81.0170 H         1 UNK         0.0837 
    106 H106      -76.4688   26.0566  -77.4548 H         1 UNK         0.3020 
    107 H107      -75.1879   28.5754  -75.9663 H         1 UNK         0.1245 
    108 H108      -77.9190   29.2552  -75.2059 H         1 UNK         0.0781 
    109 H109      -77.6576   29.9302  -76.7759 H         1 UNK         0.0781 
    110 H110      -78.3226   31.8260  -74.5666 H         1 UNK         0.0836 
    111 H111      -77.0260   32.6305  -73.7241 H         1 UNK         0.0836 
    112 H112      -77.5436   26.7812  -75.7189 H         1 UNK         0.3022 
    113 H113      -75.6376   24.4014  -74.1505 H         1 UNK         0.0747 
    114 H114      -77.1008   24.3958  -72.0928 H         1 UNK         0.0793 
    115 H115      -75.7800   25.5369  -71.9732 H         1 UNK         0.0793 
    116 H116      -77.4031   26.1176  -72.3232 H         1 UNK         0.0793 
    117 H117      -78.4616   24.5908  -74.0933 H         1 UNK         0.3047 
    118 H118      -79.0910   24.0174  -77.5658 H         1 UNK         0.0822 
    119 H119      -80.4486   22.1856  -76.5966 H         1 UNK         0.0807 
    120 H120      -79.5653   22.2940  -75.0752 H         1 UNK         0.0807 
    121 H121      -78.7439   21.7667  -76.5375 H         1 UNK         0.0807 
    122 H122      -80.9238   24.4058  -75.4613 H         1 UNK         0.2946 
    123 H123      -80.9892   27.9623  -75.3935 H         1 UNK         0.1144 
    124 H124      -82.9641   25.9694  -76.6241 H         1 UNK         0.0793 
    125 H125      -82.3220   27.4135  -77.3851 H         1 UNK         0.0793 
    126 H126      -83.3766   27.5618  -75.9886 H         1 UNK         0.0793 
    127 H127      -81.3038   27.0793  -73.4007 H         1 UNK         0.2896 
@<TRIPOS>BOND
     1    1    2 1    
     2    1   67 1    
     3    1   68 1    
     4    1   69 1    
     5    2    3 2    
     6    2    4 am   BACKBONE|DICT|INTERRES
     7    4    5 1    
     8    4   70 1    
     9    5    6 1    
    10    5   65 1    
    11    5   71 1    
    12    6    7 1    
    13    6   72 1    
    14    6   73 1    
    15    7    8 1    
    16    8    9 1    
    17    8   74 1    
    18    8   75 1    
    19    9   10 ar   
    20    9   14 ar   
    21   10   11 ar   
    22   10   76 1    
    23   11   12 ar   
    24   11   48 1    
    25   12   13 ar   
    26   12   77 1    
    27   13   14 ar   
    28   13   15 1    
    29   14   78 1    
    30   15   16 1    
    31   15   79 1    
    32   15   80 1    
    33   16   17 1    
    34   17   18 1    
    35   17   81 1    
    36   17   82 1    
    37   18   19 1    
    38   18   22 1    
    39   18   83 1    
    40   19   20 am   BACKBONE|DICT|INTERRES
    41   19   21 2    
    42   20   84 1    
    43   20   85 1    
    44   22   23 am   BACKBONE|DICT|INTERRES
    45   22   86 1    
    46   23   24 2    
    47   23   25 1    
    48   25   26 1    
    49   25   27 1    
    50   25   87 1    
    51   26   88 1    
    52   26   89 1    
    53   26   90 1    
    54   27   28 am   BACKBONE|DICT|INTERRES
    55   27   91 1    
    56   28   29 2    
    57   28   30 1    
    58   30   31 1    
    59   30   32 1    
    60   30   92 1    
    61   31   93 1    
    62   31   94 1    
    63   31   95 1    
    64   32   33 am   BACKBONE|DICT|INTERRES
    65   32   96 1    
    66   33   34 2    
    67   33   35 1    
    68   35   36 1    
    69   35   37 1    
    70   35   97 1    
    71   36   98 1    
    72   36   99 1    
    73   36  100 1    
    74   37   38 am   BACKBONE|DICT|INTERRES
    75   37  101 1    
    76   38   39 2    
    77   38   40 1    
    78   40   41 1    
    79   40   42 1    
    80   40  102 1    
    81   41  103 1    
    82   41  104 1    
    83   41  105 1    
    84   42   43 am   BACKBONE|DICT|INTERRES
    85   42  106 1    
    86   43   44 2    
    87   43   45 1    
    88   45   46 1    
    89   45   49 1    
    90   45  107 1    
    91   46   47 1    
    92   46  108 1    
    93   46  109 1    
    94   47   48 1    
    95   48  110 1    
    96   48  111 1    
    97   49   50 am   BACKBONE|DICT|INTERRES
    98   49  112 1    
    99   50   51 2    
   100   50   52 1    
   101   52   53 1    
   102   52   54 1    
   103   52  113 1    
   104   53  114 1    
   105   53  115 1    
   106   53  116 1    
   107   54   55 am   BACKBONE|DICT|INTERRES
   108   54  117 1    
   109   55   56 2    
   110   55   57 1    
   111   57   58 1    
   112   57   59 1    
   113   57  118 1    
   114   58  119 1    
   115   58  120 1    
   116   58  121 1    
   117   59   60 am   BACKBONE|DICT|INTERRES
   118   59  122 1    
   119   60   61 2    
   120   60   62 1    
   121   62   63 1    
   122   62   64 1    
   123   62  123 1    
   124   63  124 1    
   125   63  125 1    
   126   63  126 1    
   127   64   65 am   BACKBONE|DICT|INTERRES
   128   64  127 1    
   129   65   66 2    
@<TRIPOS>SUBSTRUCTURE
     1 UNK         1 GROUP             0       ****    0 ROOT    
