@<TRIPOS>MOLECULE
3R135
127   129    1
SMALL
USER_CHARGES


@<TRIPOS>ATOM
      1 CA        -83.7906   27.3284  -70.7291 C.3       0 UNK        -0.1998 
      2 C         -82.6556   27.3698  -71.7402 C.2       0 UNK         0.4909 
      3 O         -81.6787   26.6374  -71.5859 O.2       0 UNK        -0.5240 
      4 N         -82.7830   28.2196  -72.7693 N.am      1 UNK        -0.4739 
      5 CA        -81.8390   28.4648  -73.8739 C.3       1 UNK         0.0864 
      6 C6        -80.4369   28.9528  -73.4212 C.3       11 UNK        -0.0881 
      7 S7        -80.5059   30.5612  -72.5524 S.3       11 UNK        -0.2682 
      8 C8        -80.1796   30.1147  -70.8130 C.3       11 UNK         0.0289 
      9 C9        -78.7899   29.5246  -70.6280 C.ar      11 UNK        -0.0687 
     10 C10       -78.6350   28.1581  -70.3828 C.ar      11 UNK        -0.0823 
     11 C11       -77.3603   27.5895  -70.3129 C.ar      11 UNK        -0.0830 
     12 C12       -76.2337   28.4079  -70.4451 C.ar      11 UNK        -0.1021 
     13 C13       -76.3760   29.7812  -70.6653 C.ar      11 UNK        -0.0753 
     14 C14       -77.6574   30.3355  -70.7444 C.ar      11 UNK        -0.0933 
     15 C15       -75.1467   30.6620  -70.8448 C.3       11 UNK         0.0166 
     16 S16       -75.0590   31.3865  -72.5150 S.3       11 UNK        -0.2615 
     17 C17       -74.8890   29.9037  -73.5747 C.3       11 UNK        -0.0865 
     18 CA        -73.8137   30.0480  -74.6840 C.3       10 UNK         0.0862 
     19 C         -74.2406   31.0615  -75.7883 C.2       10 UNK         0.5551 
     20 N         -73.4641   32.1005  -76.0713 N.am      10 UNK        -0.7319 
     21 O         -75.2842   30.8909  -76.4112 O.2       10 UNK        -0.5018 
     22 N         -72.4807   30.2873  -74.1034 N.am      10 UNK        -0.4509 
     23 C         -71.2822   30.0213  -74.6423 C.2       10 UNK         0.4899 
     24 O         -70.2477   30.4047  -74.0984 O.2       10 UNK        -0.4839 
     25 CA        -71.1914   29.2064  -75.9540 C.3       9 UNK         0.0222 
     26 CB        -69.8308   29.3747  -76.6635 C.3       9 UNK        -0.1966 
     27 N         -71.4923   27.7834  -75.7528 N.am      9 UNK        -0.4218 
     28 C         -70.8575   26.9072  -74.9546 C.2       9 UNK         0.5020 
     29 O         -69.8863   27.1922  -74.2528 O.2       9 UNK        -0.5274 
     30 CA        -71.3697   25.4526  -74.9293 C.3       8 UNK         0.0270 
     31 CB        -71.9404   25.0925  -73.5462 C.3       8 UNK        -0.1976 
     32 N         -72.3731   25.1724  -75.9598 N.am      8 UNK        -0.4313 
     33 C         -72.0883   24.9188  -77.2452 C.2       8 UNK         0.5041 
     34 O         -70.9401   24.8293  -77.6819 O.2       8 UNK        -0.5577 
     35 CA        -73.2693   24.7549  -78.2211 C.3       7 UNK         0.0284 
     36 CB        -73.5753   23.2647  -78.4405 C.3       7 UNK        -0.1958 
     37 N         -74.4950   25.4449  -77.8072 N.am      7 UNK        -0.4454 
     38 C         -74.6203   26.7704  -77.6472 C.2       7 UNK         0.5089 
     39 O         -73.7100   27.5748  -77.8471 O.2       7 UNK        -0.5125 
     40 CA        -75.9630   27.2713  -77.0873 C.3       6 UNK         0.0408 
     41 CB        -77.0321   27.3358  -78.1880 C.3       6 UNK        -0.1791 
     42 N         -76.4489   26.4608  -75.9666 N.am      6 UNK        -0.4762 
     43 C         -75.7745   26.2597  -74.8245 C.2       6 UNK         0.5007 
     44 O         -74.6732   26.7505  -74.5866 O.2       6 UNK        -0.5032 
     45 CA        -76.4127   25.3210  -73.7894 C.3       5 UNK         0.0783 
     46 C46       -77.5365   26.0504  -73.0234 C.3       11 UNK        -0.0857 
     47 S47       -78.0527   25.1584  -71.5168 S.3       11 UNK        -0.2512 
     48 C48       -77.1983   26.0791  -70.1861 C.3       11 UNK         0.0225 
     49 N         -76.8721   24.0877  -74.4290 N.am      5 UNK        -0.4615 
     50 C         -76.0598   23.1439  -74.9235 C.2       4 UNK         0.5053 
     51 O         -74.8344   23.1683  -74.8133 O.2       4 UNK        -0.5105 
     52 CA        -76.7257   21.9948  -75.7001 C.3       4 UNK         0.0263 
     53 CB        -77.1377   20.8658  -74.7422 C.3       4 UNK        -0.1981 
     54 N         -77.8926   22.4306  -76.4730 N.am      4 UNK        -0.4224 
     55 C         -77.8427   23.2710  -77.5174 C.2       3 UNK         0.4895 
     56 O         -76.7985   23.7294  -77.9791 O.2       3 UNK        -0.5091 
     57 CA        -79.1898   23.7173  -78.1129 C.3       3 UNK         0.0250 
     58 CB        -79.6812   22.7046  -79.1590 C.3       3 UNK        -0.1996 
     59 N         -80.2304   23.9280  -77.0991 N.am      3 UNK        -0.4254 
     60 C         -80.1537   24.8340  -76.1140 C.2       2 UNK         0.5004 
     61 O         -79.1931   25.5917  -75.9623 O.2       2 UNK        -0.5226 
     62 CA        -81.3051   24.8293  -75.0932 C.3       2 UNK         0.0269 
     63 CB        -81.1089   23.6868  -74.0821 C.3       2 UNK        -0.1926 
     64 N         -81.4251   26.0843  -74.3476 N.am      2 UNK        -0.4687 
     65 C         -81.7443   27.2790  -74.8595 C.2       1 UNK         0.5165 
     66 O         -82.0017   27.4625  -76.0505 O.2       1 UNK        -0.5079 
     67 H67       -84.5866   28.0296  -70.9785 H         1 UNK         0.0900 
     68 H68       -84.2194   26.3275  -70.6886 H         1 UNK         0.0900 
     69 H69       -83.4162   27.5794  -69.7371 H         1 UNK         0.0900 
     70 H70       -83.6300   28.7680  -72.8270 H         1 UNK         0.2959 
     71 H71       -82.2840   29.2795  -74.4481 H         1 UNK         0.1079 
     72 H72       -79.7875   29.0885  -74.2883 H         1 UNK         0.0837 
     73 H73       -79.9437   28.2032  -72.8035 H         1 UNK         0.0837 
     74 H74       -80.2745   31.0092  -70.1959 H         1 UNK         0.0685 
     75 H75       -80.9469   29.4221  -70.4660 H         1 UNK         0.0685 
     76 H76       -79.5067   27.5218  -70.3089 H         1 UNK         0.1434 
     77 H77       -75.2449   27.9716  -70.4068 H         1 UNK         0.1329 
     78 H78       -77.7731   31.3930  -70.9393 H         1 UNK         0.1335 
     79 H79       -74.2301   30.1034  -70.6484 H         1 UNK         0.0680 
     80 H80       -75.1779   31.4691  -70.1118 H         1 UNK         0.0680 
     81 H81       -74.6398   29.0425  -72.9534 H         1 UNK         0.1032 
     82 H82       -75.8631   29.6696  -74.0083 H         1 UNK         0.1032 
     83 H83       -73.7800   29.0871  -75.1940 H         1 UNK         0.0461 
     84 H84       -72.6209   32.2693  -75.5474 H         1 UNK         0.3453 
     85 H85       -73.7489   32.7462  -76.7905 H         1 UNK         0.3453 
     86 H86       -72.5006   30.8098  -73.2402 H         1 UNK         0.2984 
     87 H87       -71.9433   29.5884  -76.6435 H         1 UNK         0.0554 
     88 H88       -69.6329   30.4253  -76.8792 H         1 UNK         0.0847 
     89 H89       -69.8116   28.8398  -77.6130 H         1 UNK         0.0847 
     90 H90       -69.0023   29.0073  -76.0573 H         1 UNK         0.0847 
     91 H91       -72.2863   27.4414  -76.2831 H         1 UNK         0.3141 
     92 H92       -70.5074   24.8065  -75.1070 H         1 UNK         0.0743 
     93 H93       -72.7374   25.7702  -73.2429 H         1 UNK         0.0784 
     94 H94       -72.3372   24.0772  -73.5299 H         1 UNK         0.0784 
     95 H95       -71.1647   25.1493  -72.7817 H         1 UNK         0.0784 
     96 H96       -73.3430   25.2395  -75.6758 H         1 UNK         0.3213 
     97 H97       -72.9600   25.1847  -79.1760 H         1 UNK         0.0855 
     98 H98       -73.9246   22.7877  -77.5241 H         1 UNK         0.0814 
     99 H99       -72.6862   22.7262  -78.7715 H         1 UNK         0.0814 
    100 H100      -74.3408   23.1245  -79.2039 H         1 UNK         0.0814 
    101 H101      -75.3176   24.8616  -77.6651 H         1 UNK         0.3105 
    102 H102      -75.8085   28.2823  -76.7084 H         1 UNK         0.0547 
    103 H103      -76.7160   27.9951  -78.9974 H         1 UNK         0.0837 
    104 H104      -77.2258   26.3557  -78.6232 H         1 UNK         0.0837 
    105 H105      -77.9756   27.7232  -77.8028 H         1 UNK         0.0837 
    106 H106      -77.3755   26.0486  -76.0623 H         1 UNK         0.3020 
    107 H107      -75.6270   25.0602  -73.0760 H         1 UNK         0.1245 
    108 H108      -78.4198   26.1761  -73.6480 H         1 UNK         0.0781 
    109 H109      -77.2274   27.0653  -72.7772 H         1 UNK         0.0781 
    110 H110      -76.1432   25.8013  -70.1964 H         1 UNK         0.0836 
    111 H111      -77.5920   25.7565  -69.2215 H         1 UNK         0.0836 
    112 H112      -77.8644   24.0152  -74.5939 H         1 UNK         0.3022 
    113 H113      -75.9878   21.5984  -76.4009 H         1 UNK         0.0747 
    114 H114      -77.5400   20.0107  -75.2858 H         1 UNK         0.0793 
    115 H115      -76.2800   20.5090  -74.1700 H         1 UNK         0.0793 
    116 H116      -77.8920   21.1957  -74.0265 H         1 UNK         0.0793 
    117 H117      -78.7949   22.0957  -76.1693 H         1 UNK         0.3047 
    118 H118      -79.0242   24.6719  -78.6163 H         1 UNK         0.0822 
    119 H119      -80.5853   23.0554  -79.6570 H         1 UNK         0.0807 
    120 H120      -79.8976   21.7325  -78.7141 H         1 UNK         0.0807 
    121 H121      -78.9281   22.5482  -79.9330 H         1 UNK         0.0807 
    122 H122      -81.0456   23.3341  -77.1570 H         1 UNK         0.2946 
    123 H123      -82.2409   24.6733  -75.6344 H         1 UNK         0.1144 
    124 H124      -81.9370   23.6393  -73.3745 H         1 UNK         0.0793 
    125 H125      -80.1898   23.8113  -73.5077 H         1 UNK         0.0793 
    126 H126      -81.0569   22.7175  -74.5792 H         1 UNK         0.0793 
    127 H127      -81.2712   26.0447  -73.3431 H         1 UNK         0.2896 
@<TRIPOS>BOND
     1    1    2 1    
     2    1   67 1    
     3    1   68 1    
     4    1   69 1    
     5    2    3 2    
     6    2    4 am   BACKBONE|DICT|INTERRES
     7    4    5 1    
     8    4   70 1    
     9    5    6 1    
    10    5   65 1    
    11    5   71 1    
    12    6    7 1    
    13    6   72 1    
    14    6   73 1    
    15    7    8 1    
    16    8    9 1    
    17    8   74 1    
    18    8   75 1    
    19    9   10 ar   
    20    9   14 ar   
    21   10   11 ar   
    22   10   76 1    
    23   11   12 ar   
    24   11   48 1    
    25   12   13 ar   
    26   12   77 1    
    27   13   14 ar   
    28   13   15 1    
    29   14   78 1    
    30   15   16 1    
    31   15   79 1    
    32   15   80 1    
    33   16   17 1    
    34   17   18 1    
    35   17   81 1    
    36   17   82 1    
    37   18   19 1    
    38   18   22 1    
    39   18   83 1    
    40   19   20 am   BACKBONE|DICT|INTERRES
    41   19   21 2    
    42   20   84 1    
    43   20   85 1    
    44   22   23 am   BACKBONE|DICT|INTERRES
    45   22   86 1    
    46   23   24 2    
    47   23   25 1    
    48   25   26 1    
    49   25   27 1    
    50   25   87 1    
    51   26   88 1    
    52   26   89 1    
    53   26   90 1    
    54   27   28 am   BACKBONE|DICT|INTERRES
    55   27   91 1    
    56   28   29 2    
    57   28   30 1    
    58   30   31 1    
    59   30   32 1    
    60   30   92 1    
    61   31   93 1    
    62   31   94 1    
    63   31   95 1    
    64   32   33 am   BACKBONE|DICT|INTERRES
    65   32   96 1    
    66   33   34 2    
    67   33   35 1    
    68   35   36 1    
    69   35   37 1    
    70   35   97 1    
    71   36   98 1    
    72   36   99 1    
    73   36  100 1    
    74   37   38 am   BACKBONE|DICT|INTERRES
    75   37  101 1    
    76   38   39 2    
    77   38   40 1    
    78   40   41 1    
    79   40   42 1    
    80   40  102 1    
    81   41  103 1    
    82   41  104 1    
    83   41  105 1    
    84   42   43 am   BACKBONE|DICT|INTERRES
    85   42  106 1    
    86   43   44 2    
    87   43   45 1    
    88   45   46 1    
    89   45   49 1    
    90   45  107 1    
    91   46   47 1    
    92   46  108 1    
    93   46  109 1    
    94   47   48 1    
    95   48  110 1    
    96   48  111 1    
    97   49   50 am   BACKBONE|DICT|INTERRES
    98   49  112 1    
    99   50   51 2    
   100   50   52 1    
   101   52   53 1    
   102   52   54 1    
   103   52  113 1    
   104   53  114 1    
   105   53  115 1    
   106   53  116 1    
   107   54   55 am   BACKBONE|DICT|INTERRES
   108   54  117 1    
   109   55   56 2    
   110   55   57 1    
   111   57   58 1    
   112   57   59 1    
   113   57  118 1    
   114   58  119 1    
   115   58  120 1    
   116   58  121 1    
   117   59   60 am   BACKBONE|DICT|INTERRES
   118   59  122 1    
   119   60   61 2    
   120   60   62 1    
   121   62   63 1    
   122   62   64 1    
   123   62  123 1    
   124   63  124 1    
   125   63  125 1    
   126   63  126 1    
   127   64   65 am   BACKBONE|DICT|INTERRES
   128   64  127 1    
   129   65   66 2    
@<TRIPOS>SUBSTRUCTURE
     1 UNK         1 GROUP             0       ****    0 ROOT    
