@<TRIPOS>MOLECULE
3R135
127   129    1
SMALL
USER_CHARGES


@<TRIPOS>ATOM
      1 CA        -84.9866   26.1402  -71.9246 C.3       0 UNK        -0.1998 
      2 C         -83.5336   25.8103  -72.2327 C.2       0 UNK         0.4909 
      3 O         -83.1576   24.6388  -72.1938 O.2       0 UNK        -0.5240 
      4 N         -82.7273   26.8386  -72.5362 N.am      1 UNK        -0.4739 
      5 CA        -81.2973   26.7715  -72.8763 C.3       1 UNK         0.0864 
      6 C6        -80.3910   26.3218  -71.6921 C.3       11 UNK        -0.0881 
      7 S7        -80.5618   27.3929  -70.2176 S.3       11 UNK        -0.2682 
      8 C8        -78.8214   27.7121  -69.7419 C.3       11 UNK         0.0289 
      9 C9        -78.0986   28.8170  -70.5196 C.ar      11 UNK        -0.0687 
     10 C10       -78.5484   29.2830  -71.7594 C.ar      11 UNK        -0.0823 
     11 C11       -77.8444   30.2589  -72.4651 C.ar      11 UNK        -0.0830 
     12 C12       -76.6808   30.7981  -71.9137 C.ar      11 UNK        -0.1021 
     13 C13       -76.2239   30.3650  -70.6656 C.ar      11 UNK        -0.0753 
     14 C14       -76.9337   29.3733  -69.9783 C.ar      11 UNK        -0.0933 
     15 C15       -74.9724   30.9863  -70.0590 C.3       11 UNK         0.0166 
     16 S16       -73.6326   29.7825  -69.7866 S.3       11 UNK        -0.2615 
     17 C17       -73.3323   29.1351  -71.4673 C.3       11 UNK        -0.0865 
     18 CA        -72.4214   30.0186  -72.3628 C.3       10 UNK         0.0862 
     19 C         -70.9448   30.0408  -71.8547 C.2       10 UNK         0.5551 
     20 N         -70.0200   29.2995  -72.4557 N.am      10 UNK        -0.7319 
     21 O         -70.6266   30.7608  -70.9119 O.2       10 UNK        -0.5018 
     22 N         -72.5755   29.6011  -73.7629 N.am      10 UNK        -0.4509 
     23 C         -72.0450   30.1952  -74.8399 C.2       10 UNK         0.4899 
     24 O         -71.5105   31.3046  -74.8181 O.2       10 UNK        -0.4839 
     25 CA        -72.1056   29.3862  -76.1564 C.3       9 UNK         0.0222 
     26 CB        -70.9378   29.7149  -77.1098 C.3       9 UNK        -0.1966 
     27 N         -72.2117   27.9327  -75.9354 N.am      9 UNK        -0.4218 
     28 C         -71.3415   27.1549  -75.2692 C.2       9 UNK         0.5020 
     29 O         -70.2621   27.5552  -74.8308 O.2       9 UNK        -0.5274 
     30 CA        -71.7744   25.7189  -74.9411 C.3       8 UNK         0.0270 
     31 CB        -72.3913   25.6714  -73.5328 C.3       8 UNK        -0.1976 
     32 N         -72.7124   25.1405  -75.9066 N.am      8 UNK        -0.4313 
     33 C         -72.3302   24.6248  -77.0837 C.2       8 UNK         0.5041 
     34 O         -71.1731   24.6655  -77.5051 O.2       8 UNK        -0.5577 
     35 CA        -73.4043   23.9119  -77.9198 C.3       7 UNK         0.0284 
     36 CB        -73.7568   22.5496  -77.2995 C.3       7 UNK        -0.1958 
     37 N         -74.6182   24.7093  -78.0878 N.am      7 UNK        -0.4454 
     38 C         -74.7023   25.8077  -78.8508 C.2       7 UNK         0.5089 
     39 O         -73.7723   26.2477  -79.5274 O.2       7 UNK        -0.5125 
     40 CA        -76.0488   26.5550  -78.8505 C.3       6 UNK         0.0408 
     41 CB        -77.0308   25.9043  -79.8365 C.3       6 UNK        -0.1791 
     42 N         -76.6695   26.6488  -77.5260 N.am      6 UNK        -0.4762 
     43 C         -76.1036   27.2378  -76.4609 C.2       6 UNK         0.5007 
     44 O         -74.9818   27.7435  -76.4693 O.2       6 UNK        -0.5032 
     45 CA        -76.9052   27.2063  -75.1451 C.3       5 UNK         0.0783 
     46 C46       -78.0682   28.2306  -75.1572 C.3       11 UNK        -0.0857 
     47 S47       -77.4785   29.9625  -75.2011 S.3       11 UNK        -0.2512 
     48 C48       -78.3578   30.7430  -73.8124 C.3       11 UNK         0.0225 
     49 N         -77.3577   25.8422  -74.8505 N.am      5 UNK        -0.4615 
     50 C         -76.5349   24.8024  -74.6418 C.2       4 UNK         0.5053 
     51 O         -75.3087   24.8942  -74.5907 O.2       4 UNK        -0.5105 
     52 CA        -77.1824   23.4143  -74.5469 C.3       4 UNK         0.0263 
     53 CB        -77.6908   23.1345  -73.1236 C.3       4 UNK        -0.1981 
     54 N         -78.2634   23.2549  -75.5237 N.am      4 UNK        -0.4224 
     55 C         -78.0529   23.1555  -76.8458 C.2       3 UNK         0.4895 
     56 O         -76.9340   23.1524  -77.3563 O.2       3 UNK        -0.5091 
     57 CA        -79.2801   23.0705  -77.7677 C.3       3 UNK         0.0250 
     58 CB        -79.6677   21.6030  -78.0081 C.3       3 UNK        -0.1996 
     59 N         -80.4460   23.8073  -77.2808 N.am      3 UNK        -0.4254 
     60 C         -80.5046   25.1319  -77.0847 C.2       2 UNK         0.5004 
     61 O         -79.5571   25.8957  -77.2836 O.2       2 UNK        -0.5226 
     62 CA        -81.8388   25.6994  -76.5524 C.3       2 UNK         0.0269 
     63 CB        -82.9791   24.6580  -76.4769 C.3       2 UNK        -0.1926 
     64 N         -81.7231   26.3710  -75.2503 N.am      2 UNK        -0.4687 
     65 C         -81.0685   25.9426  -74.1586 C.2       1 UNK         0.5165 
     66 O         -80.3419   24.9479  -74.1331 O.2       1 UNK        -0.5079 
     67 H67       -85.6441   25.6305  -72.6285 H         1 UNK         0.0900 
     68 H68       -85.2408   25.8079  -70.9185 H         1 UNK         0.0900 
     69 H69       -85.1858   27.2098  -71.9881 H         1 UNK         0.0900 
     70 H70       -83.1198   27.7700  -72.5372 H         1 UNK         0.2959 
     71 H71       -81.0191   27.7886  -73.1468 H         1 UNK         0.1079 
     72 H72       -80.6228   25.2966  -71.3980 H         1 UNK         0.0837 
     73 H73       -79.3445   26.3134  -72.0032 H         1 UNK         0.0837 
     74 H74       -78.8203   27.9754  -68.6831 H         1 UNK         0.0685 
     75 H75       -78.2506   26.7862  -69.8251 H         1 UNK         0.0685 
     76 H76       -79.4526   28.8939  -72.1891 H         1 UNK         0.1434 
     77 H77       -76.1366   31.5596  -72.4559 H         1 UNK         0.1329 
     78 H78       -76.5719   29.0324  -69.0176 H         1 UNK         0.1335 
     79 H79       -74.5949   31.7949  -70.6867 H         1 UNK         0.0680 
     80 H80       -75.2334   31.4408  -69.1023 H         1 UNK         0.0680 
     81 H81       -72.9054   28.1351  -71.3697 H         1 UNK         0.1032 
     82 H82       -74.2997   28.9841  -71.9480 H         1 UNK         0.1032 
     83 H83       -72.7871   31.0455  -72.3099 H         1 UNK         0.0461 
     84 H84       -70.2393   28.7268  -73.2646 H         1 UNK         0.3453 
     85 H85       -69.0718   29.3362  -72.1178 H         1 UNK         0.3453 
     86 H86       -73.0045   28.7007  -73.9074 H         1 UNK         0.2984 
     87 H87       -73.0298   29.6857  -76.6522 H         1 UNK         0.0554 
     88 H88       -70.9472   30.7684  -77.3918 H         1 UNK         0.0847 
     89 H89       -71.0024   29.1340  -78.0298 H         1 UNK         0.0847 
     90 H90       -69.9697   29.5113  -76.6513 H         1 UNK         0.0847 
     91 H91       -73.1060   27.5338  -76.2142 H         1 UNK         0.3141 
     92 H92       -70.8718   25.1037  -74.9266 H         1 UNK         0.0743 
     93 H93       -73.2940   26.2793  -73.4643 H         1 UNK         0.0784 
     94 H94       -72.6546   24.6519  -73.2501 H         1 UNK         0.0784 
     95 H95       -71.6894   26.0430  -72.7847 H         1 UNK         0.0784 
     96 H96       -73.6826   25.0557  -75.6095 H         1 UNK         0.3213 
     97 H97       -72.9834   23.7281  -78.9109 H         1 UNK         0.0855 
     98 H98       -74.2331   22.6590  -76.3243 H         1 UNK         0.0814 
     99 H99       -72.8636   21.9389  -77.1617 H         1 UNK         0.0814 
    100 H100      -74.4368   21.9881  -77.9404 H         1 UNK         0.0814 
    101 H101      -75.4577   24.3687  -77.6259 H         1 UNK         0.3105 
    102 H102      -75.8591   27.5760  -79.1881 H         1 UNK         0.0547 
    103 H103      -76.6224   25.9037  -80.8479 H         1 UNK         0.0837 
    104 H104      -77.2399   24.8684  -79.5712 H         1 UNK         0.0837 
    105 H105      -77.9791   26.4412  -79.8691 H         1 UNK         0.0837 
    106 H106      -77.6086   26.2710  -77.4285 H         1 UNK         0.3020 
    107 H107      -76.2191   27.4892  -74.3430 H         1 UNK         0.1245 
    108 H108      -78.6888   28.0857  -74.2752 H         1 UNK         0.0781 
    109 H109      -78.7280   28.0692  -76.0111 H         1 UNK         0.0781 
    110 H110      -79.4293   30.5618  -73.9117 H         1 UNK         0.0836 
    111 H111      -78.2287   31.8243  -73.8805 H         1 UNK         0.0836 
    112 H112      -78.3508   25.6582  -74.9157 H         1 UNK         0.3022 
    113 H113      -76.4122   22.6740  -74.7749 H         1 UNK         0.0747 
    114 H114      -78.1431   22.1455  -73.0509 H         1 UNK         0.0793 
    115 H115      -76.8684   23.1678  -72.4078 H         1 UNK         0.0793 
    116 H116      -78.4294   23.8661  -72.7976 H         1 UNK         0.0793 
    117 H117      -79.2115   23.3393  -75.1767 H         1 UNK         0.3047 
    118 H118      -78.9980   23.5069  -78.7273 H         1 UNK         0.0822 
    119 H119      -80.4733   21.5185  -78.7377 H         1 UNK         0.0807 
    120 H120      -79.9926   21.1142  -77.0887 H         1 UNK         0.0807 
    121 H121      -78.8210   21.0351  -78.3971 H         1 UNK         0.0807 
    122 H122      -81.2687   23.2615  -77.0697 H         1 UNK         0.2946 
    123 H123      -82.1367   26.4634  -77.2726 H         1 UNK         0.1144 
    124 H124      -83.9186   25.1318  -76.1915 H         1 UNK         0.0793 
    125 H125      -82.7742   23.8787  -75.7412 H         1 UNK         0.0793 
    126 H126      -83.1515   24.1792  -77.4420 H         1 UNK         0.0793 
    127 H127      -82.2676   27.2175  -75.1605 H         1 UNK         0.2896 
@<TRIPOS>BOND
     1    1    2 1    
     2    1   67 1    
     3    1   68 1    
     4    1   69 1    
     5    2    3 2    
     6    2    4 am   BACKBONE|DICT|INTERRES
     7    4    5 1    
     8    4   70 1    
     9    5    6 1    
    10    5   65 1    
    11    5   71 1    
    12    6    7 1    
    13    6   72 1    
    14    6   73 1    
    15    7    8 1    
    16    8    9 1    
    17    8   74 1    
    18    8   75 1    
    19    9   10 ar   
    20    9   14 ar   
    21   10   11 ar   
    22   10   76 1    
    23   11   12 ar   
    24   11   48 1    
    25   12   13 ar   
    26   12   77 1    
    27   13   14 ar   
    28   13   15 1    
    29   14   78 1    
    30   15   16 1    
    31   15   79 1    
    32   15   80 1    
    33   16   17 1    
    34   17   18 1    
    35   17   81 1    
    36   17   82 1    
    37   18   19 1    
    38   18   22 1    
    39   18   83 1    
    40   19   20 am   BACKBONE|DICT|INTERRES
    41   19   21 2    
    42   20   84 1    
    43   20   85 1    
    44   22   23 am   BACKBONE|DICT|INTERRES
    45   22   86 1    
    46   23   24 2    
    47   23   25 1    
    48   25   26 1    
    49   25   27 1    
    50   25   87 1    
    51   26   88 1    
    52   26   89 1    
    53   26   90 1    
    54   27   28 am   BACKBONE|DICT|INTERRES
    55   27   91 1    
    56   28   29 2    
    57   28   30 1    
    58   30   31 1    
    59   30   32 1    
    60   30   92 1    
    61   31   93 1    
    62   31   94 1    
    63   31   95 1    
    64   32   33 am   BACKBONE|DICT|INTERRES
    65   32   96 1    
    66   33   34 2    
    67   33   35 1    
    68   35   36 1    
    69   35   37 1    
    70   35   97 1    
    71   36   98 1    
    72   36   99 1    
    73   36  100 1    
    74   37   38 am   BACKBONE|DICT|INTERRES
    75   37  101 1    
    76   38   39 2    
    77   38   40 1    
    78   40   41 1    
    79   40   42 1    
    80   40  102 1    
    81   41  103 1    
    82   41  104 1    
    83   41  105 1    
    84   42   43 am   BACKBONE|DICT|INTERRES
    85   42  106 1    
    86   43   44 2    
    87   43   45 1    
    88   45   46 1    
    89   45   49 1    
    90   45  107 1    
    91   46   47 1    
    92   46  108 1    
    93   46  109 1    
    94   47   48 1    
    95   48  110 1    
    96   48  111 1    
    97   49   50 am   BACKBONE|DICT|INTERRES
    98   49  112 1    
    99   50   51 2    
   100   50   52 1    
   101   52   53 1    
   102   52   54 1    
   103   52  113 1    
   104   53  114 1    
   105   53  115 1    
   106   53  116 1    
   107   54   55 am   BACKBONE|DICT|INTERRES
   108   54  117 1    
   109   55   56 2    
   110   55   57 1    
   111   57   58 1    
   112   57   59 1    
   113   57  118 1    
   114   58  119 1    
   115   58  120 1    
   116   58  121 1    
   117   59   60 am   BACKBONE|DICT|INTERRES
   118   59  122 1    
   119   60   61 2    
   120   60   62 1    
   121   62   63 1    
   122   62   64 1    
   123   62  123 1    
   124   63  124 1    
   125   63  125 1    
   126   63  126 1    
   127   64   65 am   BACKBONE|DICT|INTERRES
   128   64  127 1    
   129   65   66 2    
@<TRIPOS>SUBSTRUCTURE
     1 UNK         1 GROUP             0       ****    0 ROOT    
