@<TRIPOS>MOLECULE
3R135
127   129    1
SMALL
USER_CHARGES


@<TRIPOS>ATOM
      1 CA        -78.6220   31.3503  -75.3548 C.3       0 UNK        -0.1998 
      2 C         -79.0668   29.9983  -74.8195 C.2       0 UNK         0.4909 
      3 O         -78.3080   29.0306  -74.9062 O.2       0 UNK        -0.5240 
      4 N         -80.2825   29.9238  -74.2582 N.am      1 UNK        -0.4739 
      5 CA        -80.8762   28.6928  -73.7201 C.3       1 UNK         0.0864 
      6 C6        -82.1804   28.9395  -72.9141 C.3       11 UNK        -0.0881 
      7 S7        -82.0516   30.2557  -71.6516 S.3       11 UNK        -0.2682 
      8 C8        -81.3750   29.3668  -70.2042 C.3       11 UNK         0.0289 
      9 C9        -79.9598   28.8513  -70.4406 C.ar      11 UNK        -0.0687 
     10 C10       -79.6396   27.5165  -70.1732 C.ar      11 UNK        -0.0823 
     11 C11       -78.3635   27.0197  -70.4592 C.ar      11 UNK        -0.0830 
     12 C12       -77.4036   27.8747  -71.0146 C.ar      11 UNK        -0.1021 
     13 C13       -77.7132   29.2101  -71.2973 C.ar      11 UNK        -0.0753 
     14 C14       -78.9805   29.6970  -70.9713 C.ar      11 UNK        -0.0933 
     15 C15       -76.7384   30.1158  -72.0431 C.3       11 UNK         0.0166 
     16 S16       -75.3966   30.7637  -71.0050 S.3       11 UNK        -0.2615 
     17 C17       -74.0277   29.6081  -71.3528 C.3       11 UNK        -0.0865 
     18 CA        -73.0710   30.1115  -72.4729 C.3       10 UNK         0.0862 
     19 C         -71.6861   29.4029  -72.3549 C.2       10 UNK         0.5551 
     20 N         -71.2876   28.5468  -73.2877 N.am      10 UNK        -0.7319 
     21 O         -70.9595   29.6408  -71.3935 O.2       10 UNK        -0.5018 
     22 N         -73.7042   30.0397  -73.8066 N.am      10 UNK        -0.4509 
     23 C         -73.2161   30.5815  -74.9311 C.2       10 UNK         0.4899 
     24 O         -72.1935   31.2654  -74.9817 O.2       10 UNK        -0.4839 
     25 CA        -73.9560   30.2424  -76.2328 C.3       9 UNK         0.0222 
     26 CB        -74.1581   31.4772  -77.1301 C.3       9 UNK        -0.1966 
     27 N         -73.1702   29.2248  -76.9303 N.am      9 UNK        -0.4218 
     28 C         -73.6624   28.2695  -77.7305 C.2       9 UNK         0.5020 
     29 O         -74.8331   28.2403  -78.1111 O.2       9 UNK        -0.5274 
     30 CA        -72.7002   27.1488  -78.1686 C.3       8 UNK         0.0270 
     31 CB        -71.4683   26.9786  -77.2492 C.3       8 UNK        -0.1976 
     32 N         -73.4227   25.8752  -78.2764 N.am      8 UNK        -0.4313 
     33 C         -73.0889   24.8753  -79.1015 C.2       8 UNK         0.5041 
     34 O         -72.1057   24.9095  -79.8449 O.2       8 UNK        -0.5577 
     35 CA        -73.9739   23.6172  -79.0656 C.3       7 UNK         0.0284 
     36 CB        -73.5544   22.5536  -80.1035 C.3       7 UNK        -0.1958 
     37 N         -73.9668   23.0448  -77.7188 N.am      7 UNK        -0.4454 
     38 C         -74.9274   22.2603  -77.2116 C.2       7 UNK         0.5089 
     39 O         -75.8957   21.8600  -77.8600 O.2       7 UNK        -0.5125 
     40 CA        -74.8246   21.8719  -75.7270 C.3       6 UNK         0.0408 
     41 CB        -73.4466   22.1464  -75.0856 C.3       6 UNK        -0.1791 
     42 N         -75.8619   22.6107  -75.0184 N.am      6 UNK        -0.4762 
     43 C         -76.4202   22.3033  -73.8372 C.2       6 UNK         0.5007 
     44 O         -76.1506   21.2853  -73.1974 O.2       6 UNK        -0.5032 
     45 CA        -77.4394   23.3301  -73.2846 C.3       5 UNK         0.0783 
     46 C46       -77.7395   23.1977  -71.7649 C.3       11 UNK        -0.0857 
     47 S47       -78.9959   24.4125  -71.2127 S.3       11 UNK        -0.2512 
     48 C48       -78.0257   25.5598  -70.1714 C.3       11 UNK         0.0225 
     49 N         -77.0668   24.6867  -73.6967 N.am      5 UNK        -0.4615 
     50 C         -75.9783   25.3612  -73.3067 C.2       4 UNK         0.5053 
     51 O         -75.2280   24.9909  -72.4037 O.2       4 UNK        -0.5105 
     52 CA        -75.6469   26.6591  -74.0613 C.3       4 UNK         0.0263 
     53 CB        -74.1463   26.7007  -74.4115 C.3       4 UNK        -0.1981 
     54 N         -76.5039   26.9130  -75.2316 N.am      4 UNK        -0.4224 
     55 C         -76.5230   26.2243  -76.3812 C.2       3 UNK         0.4895 
     56 O         -75.7302   25.3204  -76.6435 O.2       3 UNK        -0.5091 
     57 CA        -77.6600   26.5616  -77.3633 C.3       3 UNK         0.0250 
     58 CB        -77.5340   25.7969  -78.6980 C.3       3 UNK        -0.1996 
     59 N         -78.9860   26.3423  -76.7675 N.am      3 UNK        -0.4254 
     60 C         -79.4589   25.2168  -76.2074 C.2       2 UNK         0.5004 
     61 O         -78.8208   24.1667  -76.1389 O.2       2 UNK        -0.5226 
     62 CA        -80.8489   25.3078  -75.5457 C.3       2 UNK         0.0269 
     63 CB        -81.2791   23.9961  -74.8617 C.3       2 UNK        -0.1926 
     64 N         -80.8694   26.3852  -74.5534 N.am      2 UNK        -0.4687 
     65 C         -81.1132   27.6679  -74.8447 C.2       1 UNK         0.5165 
     66 O         -81.4726   28.0507  -75.9615 O.2       1 UNK        -0.5079 
     67 H67       -77.6704   31.6369  -74.9085 H         1 UNK         0.0900 
     68 H68       -78.4885   31.2975  -76.4348 H         1 UNK         0.0900 
     69 H69       -79.3487   32.1330  -75.1381 H         1 UNK         0.0900 
     70 H70       -80.8696   30.7441  -74.2147 H         1 UNK         0.2959 
     71 H71       -80.1342   28.2562  -73.0511 H         1 UNK         0.1079 
     72 H72       -82.5061   28.0187  -72.4263 H         1 UNK         0.0837 
     73 H73       -82.9905   29.2230  -73.5893 H         1 UNK         0.0837 
     74 H74       -81.3612   30.0451  -69.3503 H         1 UNK         0.0685 
     75 H75       -82.0509   28.5512  -69.9421 H         1 UNK         0.0685 
     76 H76       -80.3883   26.8534  -69.7610 H         1 UNK         0.1434 
     77 H77       -76.4194   27.4922  -71.2357 H         1 UNK         0.1329 
     78 H78       -79.2311   30.7250  -71.1945 H         1 UNK         0.1335 
     79 H79       -77.2744   30.9751  -72.4482 H         1 UNK         0.0680 
     80 H80       -76.3364   29.5996  -72.9119 H         1 UNK         0.0680 
     81 H81       -73.4894   29.4969  -70.4090 H         1 UNK         0.1032 
     82 H82       -74.4105   28.6141  -71.5846 H         1 UNK         0.1032 
     83 H83       -72.8664   31.1672  -72.2839 H         1 UNK         0.0461 
     84 H84       -70.3877   28.1034  -73.1924 H         1 UNK         0.3453 
     85 H85       -71.8693   28.3453  -74.0806 H         1 UNK         0.3453 
     86 H86       -74.5482   29.4935  -73.8643 H         1 UNK         0.2984 
     87 H87       -74.9381   29.8349  -75.9802 H         1 UNK         0.0554 
     88 H88       -74.7093   32.2565  -76.6023 H         1 UNK         0.0847 
     89 H89       -74.7282   31.2259  -78.0246 H         1 UNK         0.0847 
     90 H90       -73.2077   31.9064  -77.4497 H         1 UNK         0.0847 
     91 H91       -72.1873   29.2027  -76.6931 H         1 UNK         0.3141 
     92 H92       -72.3487   27.4338  -79.1624 H         1 UNK         0.0743 
     93 H93       -71.7553   26.7428  -76.2244 H         1 UNK         0.0784 
     94 H94       -70.8248   26.1717  -77.6004 H         1 UNK         0.0784 
     95 H95       -70.8502   27.8767  -77.2298 H         1 UNK         0.0784 
     96 H96       -74.2689   25.7880  -77.7124 H         1 UNK         0.3213 
     97 H97       -74.9891   23.9446  -79.3011 H         1 UNK         0.0855 
     98 H98       -72.5571   22.1636  -79.8973 H         1 UNK         0.0814 
     99 H99       -73.5411   22.9736  -81.1101 H         1 UNK         0.0814 
    100 H100      -74.2467   21.7120  -80.1174 H         1 UNK         0.0814 
    101 H101      -73.2213   23.3570  -77.1126 H         1 UNK         0.3105 
    102 H102      -75.0371   20.8032  -75.6582 H         1 UNK         0.0547 
    103 H103      -73.4070   21.7598  -74.0672 H         1 UNK         0.0837 
    104 H104      -73.2220   23.2126  -75.0362 H         1 UNK         0.0837 
    105 H105      -72.6462   21.6557  -75.6410 H         1 UNK         0.0837 
    106 H106      -76.1728   23.4522  -75.4946 H         1 UNK         0.3020 
    107 H107      -78.3671   23.0984  -73.8074 H         1 UNK         0.1245 
    108 H108      -76.8283   23.2921  -71.1733 H         1 UNK         0.0781 
    109 H109      -78.1292   22.2016  -71.5484 H         1 UNK         0.0781 
    110 H110      -76.9580   25.3891  -70.3116 H         1 UNK         0.0836 
    111 H111      -78.2293   25.3422  -69.1222 H         1 UNK         0.0836 
    112 H112      -77.6001   25.0542  -74.4722 H         1 UNK         0.3022 
    113 H113      -75.8465   27.4748  -73.3745 H         1 UNK         0.0747 
    114 H114      -73.9001   27.5838  -74.9865 H         1 UNK         0.0793 
    115 H115      -73.5363   26.7183  -73.5076 H         1 UNK         0.0793 
    116 H116      -73.8344   25.8283  -74.9859 H         1 UNK         0.0793 
    117 H117      -77.2013   27.6511  -75.1116 H         1 UNK         0.3047 
    118 H118      -77.5803   27.6285  -77.5791 H         1 UNK         0.0822 
    119 H119      -78.3307   26.0705  -79.3893 H         1 UNK         0.0807 
    120 H120      -77.5705   24.7162  -78.5528 H         1 UNK         0.0807 
    121 H121      -76.5867   26.0286  -79.1867 H         1 UNK         0.0807 
    122 H122      -79.5843   27.1593  -76.7273 H         1 UNK         0.2946 
    123 H123      -81.5685   25.5162  -76.3413 H         1 UNK         0.1144 
    124 H124      -82.2990   24.0666  -74.4836 H         1 UNK         0.0793 
    125 H125      -80.6319   23.7429  -74.0222 H         1 UNK         0.0793 
    126 H126      -81.2532   23.1599  -75.5620 H         1 UNK         0.0793 
    127 H127      -80.5637   26.1409  -73.6214 H         1 UNK         0.2896 
@<TRIPOS>BOND
     1    1    2 1    
     2    1   67 1    
     3    1   68 1    
     4    1   69 1    
     5    2    3 2    
     6    2    4 am   BACKBONE|DICT|INTERRES
     7    4    5 1    
     8    4   70 1    
     9    5    6 1    
    10    5   65 1    
    11    5   71 1    
    12    6    7 1    
    13    6   72 1    
    14    6   73 1    
    15    7    8 1    
    16    8    9 1    
    17    8   74 1    
    18    8   75 1    
    19    9   10 ar   
    20    9   14 ar   
    21   10   11 ar   
    22   10   76 1    
    23   11   12 ar   
    24   11   48 1    
    25   12   13 ar   
    26   12   77 1    
    27   13   14 ar   
    28   13   15 1    
    29   14   78 1    
    30   15   16 1    
    31   15   79 1    
    32   15   80 1    
    33   16   17 1    
    34   17   18 1    
    35   17   81 1    
    36   17   82 1    
    37   18   19 1    
    38   18   22 1    
    39   18   83 1    
    40   19   20 am   BACKBONE|DICT|INTERRES
    41   19   21 2    
    42   20   84 1    
    43   20   85 1    
    44   22   23 am   BACKBONE|DICT|INTERRES
    45   22   86 1    
    46   23   24 2    
    47   23   25 1    
    48   25   26 1    
    49   25   27 1    
    50   25   87 1    
    51   26   88 1    
    52   26   89 1    
    53   26   90 1    
    54   27   28 am   BACKBONE|DICT|INTERRES
    55   27   91 1    
    56   28   29 2    
    57   28   30 1    
    58   30   31 1    
    59   30   32 1    
    60   30   92 1    
    61   31   93 1    
    62   31   94 1    
    63   31   95 1    
    64   32   33 am   BACKBONE|DICT|INTERRES
    65   32   96 1    
    66   33   34 2    
    67   33   35 1    
    68   35   36 1    
    69   35   37 1    
    70   35   97 1    
    71   36   98 1    
    72   36   99 1    
    73   36  100 1    
    74   37   38 am   BACKBONE|DICT|INTERRES
    75   37  101 1    
    76   38   39 2    
    77   38   40 1    
    78   40   41 1    
    79   40   42 1    
    80   40  102 1    
    81   41  103 1    
    82   41  104 1    
    83   41  105 1    
    84   42   43 am   BACKBONE|DICT|INTERRES
    85   42  106 1    
    86   43   44 2    
    87   43   45 1    
    88   45   46 1    
    89   45   49 1    
    90   45  107 1    
    91   46   47 1    
    92   46  108 1    
    93   46  109 1    
    94   47   48 1    
    95   48  110 1    
    96   48  111 1    
    97   49   50 am   BACKBONE|DICT|INTERRES
    98   49  112 1    
    99   50   51 2    
   100   50   52 1    
   101   52   53 1    
   102   52   54 1    
   103   52  113 1    
   104   53  114 1    
   105   53  115 1    
   106   53  116 1    
   107   54   55 am   BACKBONE|DICT|INTERRES
   108   54  117 1    
   109   55   56 2    
   110   55   57 1    
   111   57   58 1    
   112   57   59 1    
   113   57  118 1    
   114   58  119 1    
   115   58  120 1    
   116   58  121 1    
   117   59   60 am   BACKBONE|DICT|INTERRES
   118   59  122 1    
   119   60   61 2    
   120   60   62 1    
   121   62   63 1    
   122   62   64 1    
   123   62  123 1    
   124   63  124 1    
   125   63  125 1    
   126   63  126 1    
   127   64   65 am   BACKBONE|DICT|INTERRES
   128   64  127 1    
   129   65   66 2    
@<TRIPOS>SUBSTRUCTURE
     1 UNK         1 GROUP             0       ****    0 ROOT    
