@<TRIPOS>MOLECULE
3R135
127   129    1
SMALL
USER_CHARGES


@<TRIPOS>ATOM
      1 CA        -79.3989   26.2377  -69.0958 C.3       0 UNK        -0.1998 
      2 C         -80.0796   26.6044  -70.4050 C.2       0 UNK         0.4909 
      3 O         -79.5050   26.3951  -71.4699 O.2       0 UNK        -0.5240 
      4 N         -81.3129   27.1245  -70.3384 N.am      1 UNK        -0.4739 
      5 CA        -82.1000   27.6531  -71.4697 C.3       1 UNK         0.0864 
      6 C6        -81.4894   28.9404  -72.0953 C.3       11 UNK        -0.0881 
      7 S7        -81.0814   30.2169  -70.8457 S.3       11 UNK        -0.2682 
      8 C8        -79.7102   31.1418  -71.6209 C.3       11 UNK         0.0289 
      9 C9        -78.5823   30.2399  -72.1053 C.ar      11 UNK        -0.0687 
     10 C10       -78.3257   30.1229  -73.4745 C.ar      11 UNK        -0.0823 
     11 C11       -77.3418   29.2478  -73.9390 C.ar      11 UNK        -0.0830 
     12 C12       -76.6121   28.4852  -73.0248 C.ar      11 UNK        -0.1021 
     13 C13       -76.8288   28.6221  -71.6492 C.ar      11 UNK        -0.0753 
     14 C14       -77.8165   29.5033  -71.1957 C.ar      11 UNK        -0.0933 
     15 C15       -76.0134   27.8064  -70.6532 C.3       11 UNK         0.0166 
     16 S16       -74.2175   27.8936  -70.9645 S.3       11 UNK        -0.2615 
     17 C17       -73.8191   29.6302  -70.5393 C.3       11 UNK        -0.0865 
     18 CA        -74.1007   30.6744  -71.6685 C.3       10 UNK         0.0862 
     19 C         -73.6119   32.1162  -71.3281 C.2       10 UNK         0.5551 
     20 N         -73.6669   32.5294  -70.0682 N.am      10 UNK        -0.7319 
     21 O         -73.2285   32.8913  -72.2028 O.2       10 UNK        -0.5018 
     22 N         -73.6906   30.2112  -73.0044 N.am      10 UNK        -0.4509 
     23 C         -72.4419   29.9632  -73.4119 C.2       10 UNK         0.4899 
     24 O         -71.4347   30.1130  -72.7180 O.2       10 UNK        -0.4839 
     25 CA        -72.3207   29.3505  -74.8098 C.3       9 UNK         0.0222 
     26 CB        -70.9925   29.7013  -75.5079 C.3       9 UNK        -0.1966 
     27 N         -72.4401   27.9053  -74.6504 N.am      9 UNK        -0.4218 
     28 C         -72.9246   27.0610  -75.5638 C.2       9 UNK         0.5020 
     29 O         -73.3415   27.4020  -76.6756 O.2       9 UNK        -0.5274 
     30 CA        -72.9886   25.5835  -75.1489 C.3       8 UNK         0.0270 
     31 CB        -74.3339   25.2708  -74.4742 C.3       8 UNK        -0.1976 
     32 N         -72.8369   24.7372  -76.3288 N.am      8 UNK        -0.4313 
     33 C         -71.6640   24.4247  -76.8957 C.2       8 UNK         0.5041 
     34 O         -70.5665   24.6460  -76.3821 O.2       8 UNK        -0.5577 
     35 CA        -71.7370   23.8093  -78.3002 C.3       7 UNK         0.0284 
     36 CB        -72.2024   22.3444  -78.2438 C.3       7 UNK        -0.1958 
     37 N         -72.6549   24.5914  -79.1279 N.am      7 UNK        -0.4454 
     38 C         -72.3143   25.6966  -79.8071 C.2       7 UNK         0.5089 
     39 O         -71.1578   26.0927  -79.9529 O.2       7 UNK        -0.5125 
     40 CA        -73.4752   26.5159  -80.3848 C.3       6 UNK         0.0408 
     41 CB        -74.0055   25.8105  -81.6532 C.3       6 UNK        -0.1791 
     42 N         -74.4662   26.6853  -79.3133 N.am      6 UNK        -0.4762 
     43 C         -75.8035   26.7390  -79.3576 C.2       6 UNK         0.5007 
     44 O         -76.4829   26.7468  -80.3855 O.2       6 UNK        -0.5032 
     45 CA        -76.5104   26.7302  -77.9885 C.3       5 UNK         0.0783 
     46 C46       -77.5492   27.8704  -77.8771 C.3       11 UNK        -0.0857 
     47 S47       -78.2497   27.9735  -76.1992 S.3       11 UNK        -0.2512 
     48 C48       -77.0737   29.1218  -75.4278 C.3       11 UNK         0.0225 
     49 N         -77.0994   25.4170  -77.7111 N.am      5 UNK        -0.4615 
     50 C         -76.4374   24.2581  -77.6234 C.2       4 UNK         0.5053 
     51 O         -75.2138   24.1563  -77.7405 O.2       4 UNK        -0.5105 
     52 CA        -77.2835   23.0157  -77.2960 C.3       4 UNK         0.0263 
     53 CB        -76.5300   21.7061  -77.5949 C.3       4 UNK        -0.1981 
     54 N         -77.6905   23.0184  -75.8899 N.am      4 UNK        -0.4224 
     55 C         -78.6660   23.7722  -75.3652 C.2       3 UNK         0.4895 
     56 O         -79.3740   24.5341  -76.0291 O.2       3 UNK        -0.5091 
     57 CA        -78.8366   23.6694  -73.8378 C.3       3 UNK         0.0250 
     58 CB        -77.7190   24.4514  -73.1268 C.3       3 UNK        -0.1996 
     59 N         -80.1413   24.1443  -73.3603 N.am      3 UNK        -0.4254 
     60 C         -81.3125   23.5434  -73.6277 C.2       2 UNK         0.5004 
     61 O         -81.3999   22.5084  -74.2919 O.2       2 UNK        -0.5226 
     62 CA        -82.6061   24.1488  -73.0430 C.3       2 UNK         0.0269 
     63 CB        -83.3902   23.0943  -72.2401 C.3       2 UNK        -0.1926 
     64 N         -82.3681   25.3031  -72.1735 N.am      2 UNK        -0.4687 
     65 C         -82.4340   26.5886  -72.5475 C.2       1 UNK         0.5165 
     66 O         -82.7541   26.9434  -73.6834 O.2       1 UNK        -0.5079 
     67 H67       -80.0508   26.3990  -68.2375 H         1 UNK         0.0900 
     68 H68       -79.1036   25.1889  -69.1074 H         1 UNK         0.0900 
     69 H69       -78.5031   26.8428  -68.9611 H         1 UNK         0.0900 
     70 H70       -81.7393   27.2518  -69.4309 H         1 UNK         0.2959 
     71 H71       -83.0657   27.9328  -71.0460 H         1 UNK         0.1079 
     72 H72       -80.5988   28.6734  -72.6643 H         1 UNK         0.0837 
     73 H73       -82.1817   29.3866  -72.8114 H         1 UNK         0.0837 
     74 H74       -79.3122   31.8549  -70.8978 H         1 UNK         0.0685 
     75 H75       -80.1125   31.7340  -72.4443 H         1 UNK         0.0685 
     76 H76       -78.9095   30.6928  -74.1845 H         1 UNK         0.1434 
     77 H77       -75.8627   27.7930  -73.3815 H         1 UNK         0.1329 
     78 H78       -78.0135   29.5970  -70.1367 H         1 UNK         0.1335 
     79 H79       -76.3310   26.7650  -70.7224 H         1 UNK         0.0680 
     80 H80       -76.2126   28.1240  -69.6288 H         1 UNK         0.0680 
     81 H81       -72.7623   29.6593  -70.2679 H         1 UNK         0.1032 
     82 H82       -74.3677   29.8900  -69.6331 H         1 UNK         0.1032 
     83 H83       -75.1813   30.7851  -71.7441 H         1 UNK         0.0461 
     84 H84       -74.0044   31.9321  -69.3309 H         1 UNK         0.3453 
     85 H85       -73.3691   33.4680  -69.8517 H         1 UNK         0.3453 
     86 H86       -74.4495   30.0529  -73.6494 H         1 UNK         0.2984 
     87 H87       -73.1440   29.7252  -75.4224 H         1 UNK         0.0554 
     88 H88       -70.8674   30.7819  -75.5852 H         1 UNK         0.0847 
     89 H89       -70.9595   29.2970  -76.5199 H         1 UNK         0.0847 
     90 H90       -70.1321   29.3094  -74.9642 H         1 UNK         0.0847 
     91 H91       -72.1613   27.5478  -73.7456 H         1 UNK         0.3141 
     92 H92       -72.1817   25.3671  -74.4452 H         1 UNK         0.0743 
     93 H93       -74.4362   25.8169  -73.5356 H         1 UNK         0.0784 
     94 H94       -75.1810   25.5434  -75.1048 H         1 UNK         0.0784 
     95 H95       -74.4181   24.2096  -74.2401 H         1 UNK         0.0784 
     96 H96       -73.6910   24.5264  -76.8419 H         1 UNK         0.3213 
     97 H97       -70.7368   23.8337  -78.7387 H         1 UNK         0.0855 
     98 H98       -73.2019   22.2475  -77.8184 H         1 UNK         0.0814 
     99 H99       -71.5275   21.7461  -77.6304 H         1 UNK         0.0814 
    100 H100      -72.2189   21.8976  -79.2379 H         1 UNK         0.0814 
    101 H101      -73.6431   24.3861  -79.0192 H         1 UNK         0.3105 
    102 H102      -73.1001   27.5043  -80.6549 H         1 UNK         0.0547 
    103 H103      -74.5216   24.8789  -81.4184 H         1 UNK         0.0837 
    104 H104      -74.6924   26.4484  -82.2087 H         1 UNK         0.0837 
    105 H105      -73.1897   25.5672  -82.3355 H         1 UNK         0.0837 
    106 H106      -74.0397   26.7550  -78.3900 H         1 UNK         0.3020 
    107 H107      -75.7595   26.9003  -77.2173 H         1 UNK         0.1245 
    108 H108      -78.3688   27.7146  -78.5812 H         1 UNK         0.0781 
    109 H109      -77.1035   28.8327  -78.1372 H         1 UNK         0.0781 
    110 H110      -77.1509   30.0996  -75.9059 H         1 UNK         0.0836 
    111 H111      -76.0538   28.7728  -75.5984 H         1 UNK         0.0836 
    112 H112      -78.0911   25.4101  -77.5011 H         1 UNK         0.3022 
    113 H113      -78.1751   23.0413  -77.9265 H         1 UNK         0.0747 
    114 H114      -75.6429   21.5951  -76.9699 H         1 UNK         0.0793 
    115 H115      -77.1665   20.8364  -77.4307 H         1 UNK         0.0793 
    116 H116      -76.2013   21.6743  -78.6346 H         1 UNK         0.0793 
    117 H117      -77.1390   22.4439  -75.2690 H         1 UNK         0.3047 
    118 H118      -78.7512   22.6167  -73.5597 H         1 UNK         0.0822 
    119 H119      -77.8052   24.3724  -72.0430 H         1 UNK         0.0807 
    120 H120      -77.7408   25.5110  -73.3881 H         1 UNK         0.0807 
    121 H121      -76.7352   24.0677  -73.3945 H         1 UNK         0.0807 
    122 H122      -80.1337   24.9995  -72.8126 H         1 UNK         0.2946 
    123 H123      -83.2212   24.4501  -73.8941 H         1 UNK         0.1144 
    124 H124      -84.3242   23.5035  -71.8546 H         1 UNK         0.0793 
    125 H125      -82.8126   22.7197  -71.3942 H         1 UNK         0.0793 
    126 H126      -83.6501   22.2371  -72.8628 H         1 UNK         0.0793 
    127 H127      -82.0761   25.1056  -71.2268 H         1 UNK         0.2896 
@<TRIPOS>BOND
     1    1    2 1    
     2    1   67 1    
     3    1   68 1    
     4    1   69 1    
     5    2    3 2    
     6    2    4 am   BACKBONE|DICT|INTERRES
     7    4    5 1    
     8    4   70 1    
     9    5    6 1    
    10    5   65 1    
    11    5   71 1    
    12    6    7 1    
    13    6   72 1    
    14    6   73 1    
    15    7    8 1    
    16    8    9 1    
    17    8   74 1    
    18    8   75 1    
    19    9   10 ar   
    20    9   14 ar   
    21   10   11 ar   
    22   10   76 1    
    23   11   12 ar   
    24   11   48 1    
    25   12   13 ar   
    26   12   77 1    
    27   13   14 ar   
    28   13   15 1    
    29   14   78 1    
    30   15   16 1    
    31   15   79 1    
    32   15   80 1    
    33   16   17 1    
    34   17   18 1    
    35   17   81 1    
    36   17   82 1    
    37   18   19 1    
    38   18   22 1    
    39   18   83 1    
    40   19   20 am   BACKBONE|DICT|INTERRES
    41   19   21 2    
    42   20   84 1    
    43   20   85 1    
    44   22   23 am   BACKBONE|DICT|INTERRES
    45   22   86 1    
    46   23   24 2    
    47   23   25 1    
    48   25   26 1    
    49   25   27 1    
    50   25   87 1    
    51   26   88 1    
    52   26   89 1    
    53   26   90 1    
    54   27   28 am   BACKBONE|DICT|INTERRES
    55   27   91 1    
    56   28   29 2    
    57   28   30 1    
    58   30   31 1    
    59   30   32 1    
    60   30   92 1    
    61   31   93 1    
    62   31   94 1    
    63   31   95 1    
    64   32   33 am   BACKBONE|DICT|INTERRES
    65   32   96 1    
    66   33   34 2    
    67   33   35 1    
    68   35   36 1    
    69   35   37 1    
    70   35   97 1    
    71   36   98 1    
    72   36   99 1    
    73   36  100 1    
    74   37   38 am   BACKBONE|DICT|INTERRES
    75   37  101 1    
    76   38   39 2    
    77   38   40 1    
    78   40   41 1    
    79   40   42 1    
    80   40  102 1    
    81   41  103 1    
    82   41  104 1    
    83   41  105 1    
    84   42   43 am   BACKBONE|DICT|INTERRES
    85   42  106 1    
    86   43   44 2    
    87   43   45 1    
    88   45   46 1    
    89   45   49 1    
    90   45  107 1    
    91   46   47 1    
    92   46  108 1    
    93   46  109 1    
    94   47   48 1    
    95   48  110 1    
    96   48  111 1    
    97   49   50 am   BACKBONE|DICT|INTERRES
    98   49  112 1    
    99   50   51 2    
   100   50   52 1    
   101   52   53 1    
   102   52   54 1    
   103   52  113 1    
   104   53  114 1    
   105   53  115 1    
   106   53  116 1    
   107   54   55 am   BACKBONE|DICT|INTERRES
   108   54  117 1    
   109   55   56 2    
   110   55   57 1    
   111   57   58 1    
   112   57   59 1    
   113   57  118 1    
   114   58  119 1    
   115   58  120 1    
   116   58  121 1    
   117   59   60 am   BACKBONE|DICT|INTERRES
   118   59  122 1    
   119   60   61 2    
   120   60   62 1    
   121   62   63 1    
   122   62   64 1    
   123   62  123 1    
   124   63  124 1    
   125   63  125 1    
   126   63  126 1    
   127   64   65 am   BACKBONE|DICT|INTERRES
   128   64  127 1    
   129   65   66 2    
@<TRIPOS>SUBSTRUCTURE
     1 UNK         1 GROUP             0       ****    0 ROOT    
