@<TRIPOS>MOLECULE
3R135
127   129    1
SMALL
USER_CHARGES


@<TRIPOS>ATOM
      1 CA        -77.1750   31.2152  -76.2630 C.3       0 UNK        -0.1998 
      2 C         -78.1690   30.1443  -75.8410 C.2       0 UNK         0.4909 
      3 O         -79.2785   30.0982  -76.3733 O.2       0 UNK        -0.5240 
      4 N         -77.7646   29.2752  -74.9044 N.am      1 UNK        -0.4739 
      5 CA        -78.4907   28.1011  -74.3993 C.3       1 UNK         0.0864 
      6 C6        -79.9112   28.3731  -73.8181 C.3       11 UNK        -0.0881 
      7 S7        -79.9715   29.6359  -72.5060 S.3       11 UNK        -0.2682 
      8 C8        -79.9086   28.6112  -71.0009 C.3       11 UNK         0.0289 
      9 C9        -78.4901   28.1378  -70.7360 C.ar      11 UNK        -0.0687 
     10 C10       -78.1348   26.7946  -70.8845 C.ar      11 UNK        -0.0823 
     11 C11       -76.8122   26.3865  -70.6824 C.ar      11 UNK        -0.0830 
     12 C12       -75.8458   27.3440  -70.3475 C.ar      11 UNK        -0.1021 
     13 C13       -76.1836   28.6940  -70.2129 C.ar      11 UNK        -0.0753 
     14 C14       -77.5210   29.0710  -70.3673 C.ar      11 UNK        -0.0933 
     15 C15       -75.0739   29.7042  -69.9134 C.3       11 UNK         0.0166 
     16 S16       -75.4559   31.4623  -70.2542 S.3       11 UNK        -0.2615 
     17 C17       -75.9547   31.4614  -72.0177 C.3       11 UNK        -0.0865 
     18 CA        -74.8314   31.8468  -73.0157 C.3       10 UNK         0.0862 
     19 C         -74.3242   33.3114  -72.8803 C.2       10 UNK         0.5551 
     20 N         -73.0374   33.5862  -73.0625 N.am      10 UNK        -0.7319 
     21 O         -75.1118   34.2219  -72.6354 O.2       10 UNK        -0.5018 
     22 N         -73.7609   30.8407  -73.0736 N.am      10 UNK        -0.4509 
     23 C         -73.8498   29.6727  -73.7154 C.2       10 UNK         0.4899 
     24 O         -74.8687   29.2695  -74.2877 O.2       10 UNK        -0.4839 
     25 CA        -72.5857   28.8050  -73.7100 C.3       9 UNK         0.0222 
     26 CB        -72.5354   27.9018  -72.4670 C.3       9 UNK        -0.1966 
     27 N         -72.6111   27.9763  -74.9080 N.am      9 UNK        -0.4218 
     28 C         -71.6023   27.7937  -75.7684 C.2       9 UNK         0.5020 
     29 O         -70.4615   28.2237  -75.5905 O.2       9 UNK        -0.5274 
     30 CA        -71.9121   27.0001  -77.0523 C.3       8 UNK         0.0270 
     31 CB        -71.2530   25.6116  -77.0021 C.3       8 UNK        -0.1976 
     32 N         -73.3527   26.8493  -77.2881 N.am      8 UNK        -0.4313 
     33 C         -74.1388   27.8087  -77.8021 C.2       8 UNK         0.5041 
     34 O         -73.7032   28.8911  -78.1973 O.2       8 UNK        -0.5577 
     35 CA        -75.6610   27.5559  -77.8368 C.3       7 UNK         0.0284 
     36 CB        -76.3447   28.1884  -79.0677 C.3       7 UNK        -0.1958 
     37 N         -76.0462   26.1494  -77.6702 N.am      7 UNK        -0.4454 
     38 C         -75.7805   25.1150  -78.4816 C.2       7 UNK         0.5089 
     39 O         -75.2209   25.2258  -79.5729 O.2       7 UNK        -0.5125 
     40 CA        -76.1818   23.7157  -77.9595 C.3       6 UNK         0.0408 
     41 CB        -75.3155   22.5967  -78.5726 C.3       6 UNK        -0.1791 
     42 N         -76.1929   23.5905  -76.4921 N.am      6 UNK        -0.4762 
     43 C         -75.1885   23.8841  -75.6469 C.2       6 UNK         0.5007 
     44 O         -74.1123   24.3473  -76.0241 O.2       6 UNK        -0.5032 
     45 CA        -75.3979   23.6542  -74.1366 C.3       5 UNK         0.0783 
     46 C46       -75.1668   24.9523  -73.3217 C.3       11 UNK        -0.0857 
     47 S47       -74.8429   24.5725  -71.5688 S.3       11 UNK        -0.2512 
     48 C48       -76.4581   24.9049  -70.7885 C.3       11 UNK         0.0225 
     49 N         -76.7085   23.0646  -73.8456 N.am      5 UNK        -0.4615 
     50 C         -76.9239   21.7570  -73.6609 C.2       4 UNK         0.5053 
     51 O         -76.0370   20.9041  -73.7057 O.2       4 UNK        -0.5105 
     52 CA        -78.3702   21.3108  -73.3747 C.3       4 UNK         0.0263 
     53 CB        -78.5804   21.1358  -71.8615 C.3       4 UNK        -0.1981 
     54 N         -79.4218   22.1888  -73.9043 N.am      4 UNK        -0.4224 
     55 C         -79.6073   22.4968  -75.1961 C.2       3 UNK         0.4895 
     56 O         -78.8277   22.1569  -76.0862 O.2       3 UNK        -0.5091 
     57 CA        -80.8682   23.3095  -75.5586 C.3       3 UNK         0.0250 
     58 CB        -81.8511   23.5074  -74.3862 C.3       3 UNK        -0.1996 
     59 N         -80.5027   24.6208  -76.0891 N.am      3 UNK        -0.4254 
     60 C         -80.0802   24.8740  -77.3343 C.2       2 UNK         0.5004 
     61 O         -80.0607   24.0371  -78.2370 O.2       2 UNK        -0.5226 
     62 CA        -79.6104   26.3083  -77.6456 C.3       2 UNK         0.0269 
     63 CB        -80.5992   27.0045  -78.5952 C.3       2 UNK        -0.1926 
     64 N         -79.3929   27.1806  -76.4835 N.am      2 UNK        -0.4687 
     65 C         -78.5337   26.9968  -75.4710 C.2       1 UNK         0.5165 
     66 O         -77.7911   26.0202  -75.3730 O.2       1 UNK        -0.5079 
     67 H67       -77.3616   32.1384  -75.7158 H         1 UNK         0.0900 
     68 H68       -76.1471   30.9034  -76.0809 H         1 UNK         0.0900 
     69 H69       -77.2738   31.4234  -77.3279 H         1 UNK         0.0900 
     70 H70       -76.8113   29.3534  -74.5587 H         1 UNK         0.2959 
     71 H71       -77.8744   27.7127  -73.5873 H         1 UNK         0.1079 
     72 H72       -80.3403   27.4481  -73.4296 H         1 UNK         0.0837 
     73 H73       -80.5988   28.7049  -74.5969 H         1 UNK         0.0837 
     74 H74       -80.6018   27.7733  -71.0846 H         1 UNK         0.0685 
     75 H75       -80.2495   29.2077  -70.1540 H         1 UNK         0.0685 
     76 H76       -78.8894   26.0682  -71.1535 H         1 UNK         0.1434 
     77 H77       -74.8200   27.0390  -70.1939 H         1 UNK         0.1329 
     78 H78       -77.8166   30.1037  -70.2512 H         1 UNK         0.1335 
     79 H79       -74.1858   29.4421  -70.4864 H         1 UNK         0.0680 
     80 H80       -74.7994   29.6118  -68.8621 H         1 UNK         0.0680 
     81 H81       -76.7954   32.1490  -72.1244 H         1 UNK         0.1032 
     82 H82       -76.3569   30.4881  -72.2954 H         1 UNK         0.1032 
     83 H83       -75.2948   31.8515  -74.0030 H         1 UNK         0.0461 
     84 H84       -72.7295   34.5425  -72.9775 H         1 UNK         0.3453 
     85 H85       -72.3802   32.8754  -73.3375 H         1 UNK         0.3453 
     86 H86       -72.9084   31.0828  -72.5897 H         1 UNK         0.2984 
     87 H87       -71.7100   29.4574  -73.7222 H         1 UNK         0.0554 
     88 H88       -71.7271   27.1736  -72.5364 H         1 UNK         0.0847 
     89 H89       -73.4672   27.3536  -72.3264 H         1 UNK         0.0847 
     90 H90       -72.3588   28.4884  -71.5659 H         1 UNK         0.0847 
     91 H91       -73.5317   27.6556  -75.1745 H         1 UNK         0.3141 
     92 H92       -71.4776   27.5485  -77.8908 H         1 UNK         0.0743 
     93 H93       -70.1672   25.6995  -76.9459 H         1 UNK         0.0784 
     94 H94       -71.4858   25.0269  -77.8923 H         1 UNK         0.0784 
     95 H95       -71.5755   25.0411  -76.1306 H         1 UNK         0.0784 
     96 H96       -73.7676   25.9731  -76.9771 H         1 UNK         0.3213 
     97 H97       -76.0480   28.0702  -76.9569 H         1 UNK         0.0855 
     98 H98       -75.9876   27.7516  -80.0004 H         1 UNK         0.0814 
     99 H99       -76.1484   29.2601  -79.1174 H         1 UNK         0.0814 
    100 H100      -77.4266   28.0682  -79.0301 H         1 UNK         0.0814 
    101 H101      -76.5223   25.9316  -76.7971 H         1 UNK         0.3105 
    102 H102      -77.2105   23.5549  -78.2842 H         1 UNK         0.0547 
    103 H103      -75.6261   21.6150  -78.2153 H         1 UNK         0.0837 
    104 H104      -74.2605   22.7250  -78.3282 H         1 UNK         0.0837 
    105 H105      -75.3993   22.5839  -79.6599 H         1 UNK         0.0837 
    106 H106      -77.0500   23.2089  -76.1039 H         1 UNK         0.3020 
    107 H107      -74.6109   22.9497  -73.8566 H         1 UNK         0.1245 
    108 H108      -76.0081   25.6407  -73.4135 H         1 UNK         0.0781 
    109 H109      -74.2926   25.4947  -73.6857 H         1 UNK         0.0781 
    110 H110      -77.2295   24.3605  -71.3340 H         1 UNK         0.0836 
    111 H111      -76.4445   24.4865  -69.7815 H         1 UNK         0.0836 
    112 H112      -77.4920   23.7007  -73.8237 H         1 UNK         0.3022 
    113 H113      -78.4986   20.3358  -73.8494 H         1 UNK         0.0747 
    114 H114      -79.5565   20.7025  -71.6424 H         1 UNK         0.0793 
    115 H115      -77.8305   20.4663  -71.4371 H         1 UNK         0.0793 
    116 H116      -78.5058   22.0852  -71.3303 H         1 UNK         0.0793 
    117 H117      -80.1084   22.5130  -73.2391 H         1 UNK         0.3047 
    118 H118      -81.3890   22.7488  -76.3371 H         1 UNK         0.0822 
    119 H119      -82.7518   24.0237  -74.7196 H         1 UNK         0.0807 
    120 H120      -81.4196   24.0969  -73.5769 H         1 UNK         0.0807 
    121 H121      -82.1747   22.5512  -73.9734 H         1 UNK         0.0807 
    122 H122      -80.4741   25.3827  -75.4298 H         1 UNK         0.2946 
    123 H123      -78.6615   26.2081  -78.1701 H         1 UNK         0.1144 
    124 H124      -80.2265   27.9792  -78.9107 H         1 UNK         0.0793 
    125 H125      -81.5718   27.1528  -78.1246 H         1 UNK         0.0793 
    126 H126      -80.7600   26.4149  -79.4988 H         1 UNK         0.0793 
    127 H127      -79.8694   28.0760  -76.5064 H         1 UNK         0.2896 
@<TRIPOS>BOND
     1    1    2 1    
     2    1   67 1    
     3    1   68 1    
     4    1   69 1    
     5    2    3 2    
     6    2    4 am   BACKBONE|DICT|INTERRES
     7    4    5 1    
     8    4   70 1    
     9    5    6 1    
    10    5   65 1    
    11    5   71 1    
    12    6    7 1    
    13    6   72 1    
    14    6   73 1    
    15    7    8 1    
    16    8    9 1    
    17    8   74 1    
    18    8   75 1    
    19    9   10 ar   
    20    9   14 ar   
    21   10   11 ar   
    22   10   76 1    
    23   11   12 ar   
    24   11   48 1    
    25   12   13 ar   
    26   12   77 1    
    27   13   14 ar   
    28   13   15 1    
    29   14   78 1    
    30   15   16 1    
    31   15   79 1    
    32   15   80 1    
    33   16   17 1    
    34   17   18 1    
    35   17   81 1    
    36   17   82 1    
    37   18   19 1    
    38   18   22 1    
    39   18   83 1    
    40   19   20 am   BACKBONE|DICT|INTERRES
    41   19   21 2    
    42   20   84 1    
    43   20   85 1    
    44   22   23 am   BACKBONE|DICT|INTERRES
    45   22   86 1    
    46   23   24 2    
    47   23   25 1    
    48   25   26 1    
    49   25   27 1    
    50   25   87 1    
    51   26   88 1    
    52   26   89 1    
    53   26   90 1    
    54   27   28 am   BACKBONE|DICT|INTERRES
    55   27   91 1    
    56   28   29 2    
    57   28   30 1    
    58   30   31 1    
    59   30   32 1    
    60   30   92 1    
    61   31   93 1    
    62   31   94 1    
    63   31   95 1    
    64   32   33 am   BACKBONE|DICT|INTERRES
    65   32   96 1    
    66   33   34 2    
    67   33   35 1    
    68   35   36 1    
    69   35   37 1    
    70   35   97 1    
    71   36   98 1    
    72   36   99 1    
    73   36  100 1    
    74   37   38 am   BACKBONE|DICT|INTERRES
    75   37  101 1    
    76   38   39 2    
    77   38   40 1    
    78   40   41 1    
    79   40   42 1    
    80   40  102 1    
    81   41  103 1    
    82   41  104 1    
    83   41  105 1    
    84   42   43 am   BACKBONE|DICT|INTERRES
    85   42  106 1    
    86   43   44 2    
    87   43   45 1    
    88   45   46 1    
    89   45   49 1    
    90   45  107 1    
    91   46   47 1    
    92   46  108 1    
    93   46  109 1    
    94   47   48 1    
    95   48  110 1    
    96   48  111 1    
    97   49   50 am   BACKBONE|DICT|INTERRES
    98   49  112 1    
    99   50   51 2    
   100   50   52 1    
   101   52   53 1    
   102   52   54 1    
   103   52  113 1    
   104   53  114 1    
   105   53  115 1    
   106   53  116 1    
   107   54   55 am   BACKBONE|DICT|INTERRES
   108   54  117 1    
   109   55   56 2    
   110   55   57 1    
   111   57   58 1    
   112   57   59 1    
   113   57  118 1    
   114   58  119 1    
   115   58  120 1    
   116   58  121 1    
   117   59   60 am   BACKBONE|DICT|INTERRES
   118   59  122 1    
   119   60   61 2    
   120   60   62 1    
   121   62   63 1    
   122   62   64 1    
   123   62  123 1    
   124   63  124 1    
   125   63  125 1    
   126   63  126 1    
   127   64   65 am   BACKBONE|DICT|INTERRES
   128   64  127 1    
   129   65   66 2    
@<TRIPOS>SUBSTRUCTURE
     1 UNK         1 GROUP             0       ****    0 ROOT    
