@<TRIPOS>MOLECULE
3R135
127   129    1
SMALL
USER_CHARGES


@<TRIPOS>ATOM
      1 CA        -84.0076   23.8032  -69.5452 C.3       0 UNK        -0.1998 
      2 C         -83.8065   25.0878  -70.3344 C.2       0 UNK         0.4909 
      3 O         -84.7727   25.6426  -70.8588 O.2       0 UNK        -0.5240 
      4 N         -82.5580   25.5649  -70.4232 N.am      1 UNK        -0.4739 
      5 CA        -82.1637   26.7726  -71.1625 C.3       1 UNK         0.0864 
      6 C6        -80.8113   27.3464  -70.6684 C.3       11 UNK        -0.0881 
      7 S7        -79.4810   26.1130  -70.4185 S.3       11 UNK        -0.2682 
      8 C8        -78.5269   26.2005  -71.9652 C.3       11 UNK         0.0289 
      9 C9        -78.0091   27.5985  -72.2604 C.ar      11 UNK        -0.0687 
     10 C10       -78.5993   28.3495  -73.2775 C.ar      11 UNK        -0.0823 
     11 C11       -78.1137   29.6190  -73.5959 C.ar      11 UNK        -0.0830 
     12 C12       -77.0570   30.1571  -72.8574 C.ar      11 UNK        -0.1021 
     13 C13       -76.4638   29.4199  -71.8275 C.ar      11 UNK        -0.0753 
     14 C14       -76.9381   28.1354  -71.5392 C.ar      11 UNK        -0.0933 
     15 C15       -75.3162   30.0125  -71.0225 C.3       11 UNK         0.0166 
     16 S16       -73.6989   29.6087  -71.7520 S.3       11 UNK        -0.2615 
     17 C17       -73.6778   30.6879  -73.2298 C.3       11 UNK        -0.0865 
     18 CA        -72.2627   31.1777  -73.6386 C.3       10 UNK         0.0862 
     19 C         -71.6895   32.2412  -72.6586 C.2       10 UNK         0.5551 
     20 N         -72.1951   33.4661  -72.7166 N.am      10 UNK        -0.7319 
     21 O         -70.8148   31.9687  -71.8376 O.2       10 UNK        -0.5018 
     22 N         -71.3627   30.0417  -73.8619 N.am      10 UNK        -0.4509 
     23 C         -70.2054   30.0771  -74.5331 C.2       10 UNK         0.4899 
     24 O         -69.7726   31.0798  -75.1023 O.2       10 UNK        -0.4839 
     25 CA        -69.3880   28.7702  -74.5894 C.3       9 UNK         0.0222 
     26 CB        -68.1831   28.8528  -73.6375 C.3       9 UNK        -0.1966 
     27 N         -70.1709   27.5694  -74.2707 N.am      9 UNK        -0.4218 
     28 C         -71.1277   27.0521  -75.0537 C.2       9 UNK         0.5020 
     29 O         -71.4247   27.5037  -76.1622 O.2       9 UNK        -0.5274 
     30 CA        -71.9086   25.8677  -74.4581 C.3       8 UNK         0.0270 
     31 CB        -72.9440   26.3666  -73.4347 C.3       8 UNK        -0.1976 
     32 N         -72.6083   25.0927  -75.4807 N.am      8 UNK        -0.4313 
     33 C         -72.0263   24.2875  -76.3777 C.2       8 UNK         0.5041 
     34 O         -70.8156   24.0610  -76.4170 O.2       8 UNK        -0.5577 
     35 CA        -72.9555   23.6053  -77.3927 C.3       7 UNK         0.0284 
     36 CB        -73.6154   22.3629  -76.7707 C.3       7 UNK        -0.1958 
     37 N         -73.9926   24.5176  -77.8798 N.am      7 UNK        -0.4454 
     38 C         -73.8502   25.3361  -78.9308 C.2       7 UNK         0.5089 
     39 O         -72.8273   25.3987  -79.6139 O.2       7 UNK        -0.5125 
     40 CA        -75.0563   26.2127  -79.3166 C.3       6 UNK         0.0408 
     41 CB        -75.8162   25.5813  -80.4941 C.3       6 UNK        -0.1791 
     42 N         -75.9921   26.4290  -78.2110 N.am      6 UNK        -0.4762 
     43 C         -75.8320   27.3577  -77.2542 C.2       6 UNK         0.5007 
     44 O         -74.8852   28.1430  -77.2186 O.2       6 UNK        -0.5032 
     45 CA        -76.9072   27.4075  -76.1426 C.3       5 UNK         0.0783 
     46 C46       -78.0894   28.3159  -76.5853 C.3       11 UNK        -0.0857 
     47 S47       -77.7719   30.0902  -76.2930 S.3       11 UNK        -0.2512 
     48 C48       -78.7109   30.3910  -74.7606 C.3       11 UNK         0.0225 
     49 N         -77.3882   26.0775  -75.7383 N.am      5 UNK        -0.4615 
     50 C         -76.6279   25.0163  -75.4229 C.2       4 UNK         0.5053 
     51 O         -75.4099   25.0762  -75.2687 O.2       4 UNK        -0.5105 
     52 CA        -77.3039   23.6296  -75.3682 C.3       4 UNK         0.0263 
     53 CB        -77.4098   23.1189  -73.9234 C.3       4 UNK        -0.1981 
     54 N         -78.6243   23.5742  -76.0014 N.am      4 UNK        -0.4224 
     55 C         -78.9020   23.9049  -77.2711 C.2       3 UNK         0.4895 
     56 O         -78.0379   24.1603  -78.1121 O.2       3 UNK        -0.5091 
     57 CA        -80.3860   24.0561  -77.6542 C.3       3 UNK         0.0250 
     58 CB        -80.8172   22.9022  -78.5741 C.3       3 UNK        -0.1996 
     59 N         -81.3371   24.1552  -76.5354 N.am      3 UNK        -0.4254 
     60 C         -81.3318   25.0389  -75.5230 C.2       2 UNK         0.5004 
     61 O         -80.4345   25.8666  -75.3473 O.2       2 UNK        -0.5226 
     62 CA        -82.5341   24.9710  -74.5569 C.3       2 UNK         0.0269 
     63 CB        -83.2062   23.5816  -74.5093 C.3       2 UNK        -0.1926 
     64 N         -82.2008   25.3574  -73.1834 N.am      2 UNK        -0.4687 
     65 C         -82.2292   26.6076  -72.6998 C.2       1 UNK         0.5165 
     66 O         -82.3738   27.6083  -73.4039 O.2       1 UNK        -0.5079 
     67 H67       -84.6966   23.9747  -68.7186 H         1 UNK         0.0900 
     68 H68       -84.4305   23.0310  -70.1872 H         1 UNK         0.0900 
     69 H69       -83.0712   23.4269  -69.1333 H         1 UNK         0.0900 
     70 H70       -81.7977   25.0775  -69.9682 H         1 UNK         0.2959 
     71 H71       -82.9165   27.5324  -70.9382 H         1 UNK         0.1079 
     72 H72       -80.4756   28.1651  -71.3047 H         1 UNK         0.0837 
     73 H73       -80.9751   27.8109  -69.6949 H         1 UNK         0.0837 
     74 H74       -77.6798   25.5175  -71.8926 H         1 UNK         0.0685 
     75 H75       -79.1463   25.8369  -72.7866 H         1 UNK         0.0685 
     76 H76       -79.4272   27.9325  -73.8353 H         1 UNK         0.1434 
     77 H77       -76.6883   31.1448  -73.0963 H         1 UNK         0.1329 
     78 H78       -76.4793   27.5553  -70.7502 H         1 UNK         0.1335 
     79 H79       -75.4251   31.0949  -70.9370 H         1 UNK         0.0680 
     80 H80       -75.3448   29.6254  -70.0029 H         1 UNK         0.0680 
     81 H81       -74.1223   30.1292  -74.0555 H         1 UNK         0.1032 
     82 H82       -74.3353   31.5436  -73.0706 H         1 UNK         0.1032 
     83 H83       -72.3674   31.6783  -74.6036 H         1 UNK         0.0461 
     84 H84       -72.9093   33.7072  -73.3859 H         1 UNK         0.3453 
     85 H85       -71.8450   34.1695  -72.0850 H         1 UNK         0.3453 
     86 H86       -71.6221   29.1880  -73.3922 H         1 UNK         0.2984 
     87 H87       -69.0098   28.6662  -75.6086 H         1 UNK         0.0554 
     88 H88       -67.5579   29.7151  -73.8740 H         1 UNK         0.0847 
     89 H89       -67.5515   27.9676  -73.7154 H         1 UNK         0.0847 
     90 H90       -68.4956   28.9551  -72.5974 H         1 UNK         0.0847 
     91 H91       -69.9903   27.1372  -73.3753 H         1 UNK         0.3141 
     92 H92       -71.2034   25.2041  -73.9531 H         1 UNK         0.0743 
     93 H93       -73.6544   27.0614  -73.8863 H         1 UNK         0.0784 
     94 H94       -73.5149   25.5397  -73.0115 H         1 UNK         0.0784 
     95 H95       -72.4637   26.8823  -72.6028 H         1 UNK         0.0784 
     96 H96       -73.6213   25.1953  -75.5042 H         1 UNK         0.3213 
     97 H97       -72.3451   23.2726  -78.2354 H         1 UNK         0.0855 
     98 H98       -74.2056   22.6129  -75.8886 H         1 UNK         0.0814 
     99 H99       -72.8605   21.6396  -76.4595 H         1 UNK         0.0814 
    100 H100      -74.2700   21.8611  -77.4834 H         1 UNK         0.0814 
    101 H101      -74.8414   24.5820  -77.3348 H         1 UNK         0.3105 
    102 H102      -74.6691   27.1790  -79.6468 H         1 UNK         0.0547 
    103 H103      -75.1576   25.4362  -81.3516 H         1 UNK         0.0837 
    104 H104      -76.2293   24.6063  -80.2320 H         1 UNK         0.0837 
    105 H105      -76.6388   26.2165  -80.8226 H         1 UNK         0.0837 
    106 H106      -76.7872   25.7984  -78.1600 H         1 UNK         0.3020 
    107 H107      -76.4333   27.8364  -75.2567 H         1 UNK         0.1245 
    108 H108      -79.0061   28.0453  -76.0628 H         1 UNK         0.0781 
    109 H109      -78.3292   28.1739  -77.6412 H         1 UNK         0.0781 
    110 H110      -79.7574   30.1191  -74.9088 H         1 UNK         0.0836 
    111 H111      -78.7017   31.4598  -74.5415 H         1 UNK         0.0836 
    112 H112      -78.3923   25.9395  -75.7855 H         1 UNK         0.3022 
    113 H113      -76.6560   22.9467  -75.9207 H         1 UNK         0.0747 
    114 H114      -77.6838   22.0640  -73.8992 H         1 UNK         0.0793 
    115 H115      -76.4579   23.2154  -73.3986 H         1 UNK         0.0793 
    116 H116      -78.1581   23.6680  -73.3536 H         1 UNK         0.0793 
    117 H117      -79.4072   23.3970  -75.3899 H         1 UNK         0.3047 
    118 H118      -80.4641   24.9878  -78.2180 H         1 UNK         0.0822 
    119 H119      -81.8246   23.0561  -78.9613 H         1 UNK         0.0807 
    120 H120      -80.7982   21.9435  -78.0541 H         1 UNK         0.0807 
    121 H121      -80.1532   22.8181  -79.4360 H         1 UNK         0.0807 
    122 H122      -82.1122   23.5089  -76.5719 H         1 UNK         0.2946 
    123 H123      -83.2707   25.6794  -74.9436 H         1 UNK         0.1144 
    124 H124      -84.0218   23.5661  -73.7854 H         1 UNK         0.0793 
    125 H125      -82.5014   22.7979  -74.2273 H         1 UNK         0.0793 
    126 H126      -83.6449   23.3096  -75.4701 H         1 UNK         0.0793 
    127 H127      -82.0474   24.6068  -72.5264 H         1 UNK         0.2896 
@<TRIPOS>BOND
     1    1    2 1    
     2    1   67 1    
     3    1   68 1    
     4    1   69 1    
     5    2    3 2    
     6    2    4 am   BACKBONE|DICT|INTERRES
     7    4    5 1    
     8    4   70 1    
     9    5    6 1    
    10    5   65 1    
    11    5   71 1    
    12    6    7 1    
    13    6   72 1    
    14    6   73 1    
    15    7    8 1    
    16    8    9 1    
    17    8   74 1    
    18    8   75 1    
    19    9   10 ar   
    20    9   14 ar   
    21   10   11 ar   
    22   10   76 1    
    23   11   12 ar   
    24   11   48 1    
    25   12   13 ar   
    26   12   77 1    
    27   13   14 ar   
    28   13   15 1    
    29   14   78 1    
    30   15   16 1    
    31   15   79 1    
    32   15   80 1    
    33   16   17 1    
    34   17   18 1    
    35   17   81 1    
    36   17   82 1    
    37   18   19 1    
    38   18   22 1    
    39   18   83 1    
    40   19   20 am   BACKBONE|DICT|INTERRES
    41   19   21 2    
    42   20   84 1    
    43   20   85 1    
    44   22   23 am   BACKBONE|DICT|INTERRES
    45   22   86 1    
    46   23   24 2    
    47   23   25 1    
    48   25   26 1    
    49   25   27 1    
    50   25   87 1    
    51   26   88 1    
    52   26   89 1    
    53   26   90 1    
    54   27   28 am   BACKBONE|DICT|INTERRES
    55   27   91 1    
    56   28   29 2    
    57   28   30 1    
    58   30   31 1    
    59   30   32 1    
    60   30   92 1    
    61   31   93 1    
    62   31   94 1    
    63   31   95 1    
    64   32   33 am   BACKBONE|DICT|INTERRES
    65   32   96 1    
    66   33   34 2    
    67   33   35 1    
    68   35   36 1    
    69   35   37 1    
    70   35   97 1    
    71   36   98 1    
    72   36   99 1    
    73   36  100 1    
    74   37   38 am   BACKBONE|DICT|INTERRES
    75   37  101 1    
    76   38   39 2    
    77   38   40 1    
    78   40   41 1    
    79   40   42 1    
    80   40  102 1    
    81   41  103 1    
    82   41  104 1    
    83   41  105 1    
    84   42   43 am   BACKBONE|DICT|INTERRES
    85   42  106 1    
    86   43   44 2    
    87   43   45 1    
    88   45   46 1    
    89   45   49 1    
    90   45  107 1    
    91   46   47 1    
    92   46  108 1    
    93   46  109 1    
    94   47   48 1    
    95   48  110 1    
    96   48  111 1    
    97   49   50 am   BACKBONE|DICT|INTERRES
    98   49  112 1    
    99   50   51 2    
   100   50   52 1    
   101   52   53 1    
   102   52   54 1    
   103   52  113 1    
   104   53  114 1    
   105   53  115 1    
   106   53  116 1    
   107   54   55 am   BACKBONE|DICT|INTERRES
   108   54  117 1    
   109   55   56 2    
   110   55   57 1    
   111   57   58 1    
   112   57   59 1    
   113   57  118 1    
   114   58  119 1    
   115   58  120 1    
   116   58  121 1    
   117   59   60 am   BACKBONE|DICT|INTERRES
   118   59  122 1    
   119   60   61 2    
   120   60   62 1    
   121   62   63 1    
   122   62   64 1    
   123   62  123 1    
   124   63  124 1    
   125   63  125 1    
   126   63  126 1    
   127   64   65 am   BACKBONE|DICT|INTERRES
   128   64  127 1    
   129   65   66 2    
@<TRIPOS>SUBSTRUCTURE
     1 UNK         1 GROUP             0       ****    0 ROOT    
