@<TRIPOS>MOLECULE
3R135
127   129    1
SMALL
USER_CHARGES


@<TRIPOS>ATOM
      1 CA        -84.3376   28.2084  -72.0859 C.3       0 UNK        -0.1998 
      2 C         -83.6285   28.2588  -73.4309 C.2       0 UNK         0.4909 
      3 O         -84.2866   28.2322  -74.4713 O.2       0 UNK        -0.5240 
      4 N         -82.2913   28.3361  -73.4153 N.am      1 UNK        -0.4739 
      5 CA        -81.4385   28.3726  -74.6110 C.3       1 UNK         0.0864 
      6 C6        -79.9913   28.8202  -74.2810 C.3       11 UNK        -0.0881 
      7 S7        -79.8991   30.5586  -73.7284 S.3       11 UNK        -0.2682 
      8 C8        -79.9991   30.4375  -71.9115 C.3       11 UNK         0.0289 
      9 C9        -78.7518   29.8215  -71.2950 C.ar      11 UNK        -0.0687 
     10 C10       -78.7371   28.4735  -70.9259 C.ar      11 UNK        -0.0823 
     11 C11       -77.5950   27.9053  -70.3544 C.ar      11 UNK        -0.0830 
     12 C12       -76.4718   28.7052  -70.1210 C.ar      11 UNK        -0.1021 
     13 C13       -76.4713   30.0528  -70.4950 C.ar      11 UNK        -0.0753 
     14 C14       -77.6153   30.6056  -71.0789 C.ar      11 UNK        -0.0933 
     15 C15       -75.2300   30.9093  -70.2859 C.3       11 UNK         0.0166 
     16 S16       -73.8429   30.3897  -71.3473 S.3       11 UNK        -0.2615 
     17 C17       -74.5872   30.4944  -73.0134 C.3       11 UNK        -0.0865 
     18 CA        -73.5952   30.3203  -74.2034 C.3       10 UNK         0.0862 
     19 C         -72.6645   31.5312  -74.5183 C.2       10 UNK         0.5551 
     20 N         -72.7304   32.6219  -73.7660 N.am      10 UNK        -0.7319 
     21 O         -71.9226   31.5064  -75.4983 O.2       10 UNK        -0.5018 
     22 N         -72.9412   29.0002  -74.2102 N.am      10 UNK        -0.4509 
     23 C         -71.7698   28.6520  -73.6535 C.2       10 UNK         0.4899 
     24 O         -71.0077   29.4297  -73.0786 O.2       10 UNK        -0.4839 
     25 CA        -71.3713   27.1703  -73.7271 C.3       9 UNK         0.0222 
     26 CB        -71.9001   26.4126  -72.4964 C.3       9 UNK        -0.1966 
     27 N         -71.8438   26.5167  -74.9509 N.am      9 UNK        -0.4218 
     28 C         -71.1332   25.6422  -75.6747 C.2       9 UNK         0.5020 
     29 O         -69.9890   25.2825  -75.3920 O.2       9 UNK        -0.5274 
     30 CA        -71.8092   25.0531  -76.9257 C.3       8 UNK         0.0270 
     31 CB        -72.6366   23.8119  -76.5530 C.3       8 UNK        -0.1976 
     32 N         -72.6684   25.9991  -77.6384 N.am      8 UNK        -0.4313 
     33 C         -72.2730   27.1145  -78.2635 C.2       8 UNK         0.5041 
     34 O         -71.0984   27.4795  -78.3237 O.2       8 UNK        -0.5577 
     35 CA        -73.3594   27.9825  -78.9340 C.3       7 UNK         0.0284 
     36 CB        -73.5211   27.6127  -80.4217 C.3       7 UNK        -0.1958 
     37 N         -74.6571   28.0008  -78.2370 N.am      7 UNK        -0.4454 
     38 C         -75.5268   26.9976  -78.0529 C.2       7 UNK         0.5089 
     39 O         -75.3849   25.8628  -78.5105 O.2       7 UNK        -0.5125 
     40 CA        -76.7116   27.2915  -77.1193 C.3       6 UNK         0.0408 
     41 CB        -78.0463   27.1057  -77.8554 C.3       6 UNK        -0.1791 
     42 N         -76.6868   26.4457  -75.9205 N.am      6 UNK        -0.4762 
     43 C         -75.6711   26.3758  -75.0459 C.2       6 UNK         0.5007 
     44 O         -74.6201   27.0057  -75.1741 O.2       6 UNK        -0.5032 
     45 CA        -75.8379   25.4788  -73.8106 C.3       5 UNK         0.0783 
     46 C46       -76.6358   26.2238  -72.7170 C.3       11 UNK        -0.0857 
     47 S47       -76.3727   25.4944  -71.0661 S.3       11 UNK        -0.2512 
     48 C48       -77.5657   26.4158  -70.0343 C.3       11 UNK         0.0225 
     49 N         -76.4514   24.2000  -74.1701 N.am      5 UNK        -0.4615 
     50 C         -75.8466   23.0085  -74.0695 C.2       4 UNK         0.5053 
     51 O         -74.6961   22.8561  -73.6587 O.2       4 UNK        -0.5105 
     52 CA        -76.6528   21.7622  -74.4852 C.3       4 UNK         0.0263 
     53 CB        -77.2502   21.0767  -73.2454 C.3       4 UNK        -0.1981 
     54 N         -77.7293   22.0546  -75.4329 N.am      4 UNK        -0.4224 
     55 C         -77.5460   22.4374  -76.7039 C.2       3 UNK         0.4895 
     56 O         -76.4461   22.4629  -77.2555 O.2       3 UNK        -0.5091 
     57 CA        -78.7925   22.8848  -77.4930 C.3       3 UNK         0.0250 
     58 CB        -79.2322   21.7786  -78.4663 C.3       3 UNK        -0.1996 
     59 N         -79.9483   23.2913  -76.6783 N.am      3 UNK        -0.4254 
     60 C         -79.9629   24.2708  -75.7629 C.2       2 UNK         0.5004 
     61 O         -78.9610   24.9012  -75.4149 O.2       2 UNK        -0.5226 
     62 CA        -81.3109   24.5437  -75.0745 C.3       2 UNK         0.0269 
     63 CB        -81.5071   23.5766  -73.8954 C.3       2 UNK        -0.1926 
     64 N         -81.4068   25.9173  -74.5750 N.am      2 UNK        -0.4687 
     65 C         -81.4303   27.0159  -75.3445 C.2       1 UNK         0.5165 
     66 O         -81.4615   26.9894  -76.5756 O.2       1 UNK        -0.5079 
     67 H67       -84.9110   27.2858  -71.9989 H         1 UNK         0.0900 
     68 H68       -85.0265   29.0476  -71.9937 H         1 UNK         0.0900 
     69 H69       -83.6372   28.2523  -71.2521 H         1 UNK         0.0900 
     70 H70       -81.8104   28.3660  -72.5297 H         1 UNK         0.2959 
     71 H71       -81.8679   29.0997  -75.3045 H         1 UNK         0.1079 
     72 H72       -79.5310   28.1602  -73.5459 H         1 UNK         0.0837 
     73 H73       -79.3625   28.7465  -75.1707 H         1 UNK         0.0837 
     74 H74       -80.1373   31.4419  -71.5083 H         1 UNK         0.0685 
     75 H75       -80.8889   29.8794  -71.6212 H         1 UNK         0.0685 
     76 H76       -79.6105   27.8606  -71.0989 H         1 UNK         0.1434 
     77 H77       -75.5823   28.2689  -69.6868 H         1 UNK         0.1329 
     78 H78       -77.6229   31.6466  -71.3721 H         1 UNK         0.1335 
     79 H79       -75.4466   31.9618  -70.4756 H         1 UNK         0.0680 
     80 H80       -74.9201   30.8433  -69.2422 H         1 UNK         0.0680 
     81 H81       -75.1381   31.4318  -73.1062 H         1 UNK         0.1032 
     82 H82       -75.3466   29.7134  -73.0790 H         1 UNK         0.1032 
     83 H83       -74.2328   30.2810  -75.0876 H         1 UNK         0.0461 
     84 H84       -72.1436   33.4104  -73.9887 H         1 UNK         0.3453 
     85 H85       -73.3098   32.6401  -72.9416 H         1 UNK         0.3453 
     86 H86       -73.5072   28.2676  -74.6284 H         1 UNK         0.2984 
     87 H87       -70.2799   27.1423  -73.7007 H         1 UNK         0.0554 
     88 H88       -71.6013   25.3644  -72.5137 H         1 UNK         0.0847 
     89 H89       -72.9878   26.4529  -72.4342 H         1 UNK         0.0847 
     90 H90       -71.5086   26.8471  -71.5757 H         1 UNK         0.0847 
     91 H91       -72.7916   26.7293  -75.2499 H         1 UNK         0.3141 
     92 H92       -71.0183   24.7448  -77.6125 H         1 UNK         0.0743 
     93 H93       -73.4722   24.0670  -75.9002 H         1 UNK         0.0784 
     94 H94       -73.0441   23.3237  -77.4386 H         1 UNK         0.0784 
     95 H95       -72.0262   23.0756  -76.0283 H         1 UNK         0.0784 
     96 H96       -73.6553   25.7653  -77.7099 H         1 UNK         0.3213 
     97 H97       -72.9937   29.0100  -78.8927 H         1 UNK         0.0855 
     98 H98       -72.5726   27.7138  -80.9509 H         1 UNK         0.0814 
     99 H99       -74.2394   28.2656  -80.9173 H         1 UNK         0.0814 
    100 H100      -73.8548   26.5833  -80.5547 H         1 UNK         0.0814 
    101 H101      -74.8644   28.8728  -77.7697 H         1 UNK         0.3105 
    102 H102      -76.6533   28.3295  -76.7854 H         1 UNK         0.0547 
    103 H103      -78.0997   27.7447  -78.7376 H         1 UNK         0.0837 
    104 H104      -78.1832   26.0776  -78.1890 H         1 UNK         0.0837 
    105 H105      -78.8896   27.3642  -77.2173 H         1 UNK         0.0837 
    106 H106      -77.5211   25.8862  -75.7498 H         1 UNK         0.3020 
    107 H107      -74.8275   25.3103  -73.4323 H         1 UNK         0.1245 
    108 H108      -77.7030   26.2340  -72.9478 H         1 UNK         0.0781 
    109 H109      -76.3205   27.2681  -72.6608 H         1 UNK         0.0781 
    110 H110      -77.3091   26.2764  -68.9833 H         1 UNK         0.0836 
    111 H111      -78.5537   25.9725  -70.1681 H         1 UNK         0.0836 
    112 H112      -77.3927   24.2488  -74.5483 H         1 UNK         0.3022 
    113 H113      -75.9592   21.0667  -74.9626 H         1 UNK         0.0747 
    114 H114      -77.7650   20.1531  -73.5104 H         1 UNK         0.0793 
    115 H115      -76.4687   20.8163  -72.5300 H         1 UNK         0.0793 
    116 H116      -77.9607   21.7238  -72.7291 H         1 UNK         0.0793 
    117 H117      -78.6708   22.0487  -75.0699 H         1 UNK         0.3047 
    118 H118      -78.4917   23.7524  -78.0824 H         1 UNK         0.0822 
    119 H119      -80.0371   22.1184  -79.1183 H         1 UNK         0.0807 
    120 H120      -79.5787   20.8898  -77.9372 H         1 UNK         0.0807 
    121 H121      -78.4064   21.4726  -79.1105 H         1 UNK         0.0807 
    122 H122      -80.8137   22.8082  -76.8744 H         1 UNK         0.2946 
    123 H123      -82.1115   24.3923  -75.8022 H         1 UNK         0.1144 
    124 H124      -81.4872   22.5380  -74.2285 H         1 UNK         0.0793 
    125 H125      -82.4685   23.7368  -73.4068 H         1 UNK         0.0793 
    126 H126      -80.7252   23.6929  -73.1433 H         1 UNK         0.0793 
    127 H127      -81.3843   26.0369  -73.5738 H         1 UNK         0.2896 
@<TRIPOS>BOND
     1    1    2 1    
     2    1   67 1    
     3    1   68 1    
     4    1   69 1    
     5    2    3 2    
     6    2    4 am   BACKBONE|DICT|INTERRES
     7    4    5 1    
     8    4   70 1    
     9    5    6 1    
    10    5   65 1    
    11    5   71 1    
    12    6    7 1    
    13    6   72 1    
    14    6   73 1    
    15    7    8 1    
    16    8    9 1    
    17    8   74 1    
    18    8   75 1    
    19    9   10 ar   
    20    9   14 ar   
    21   10   11 ar   
    22   10   76 1    
    23   11   12 ar   
    24   11   48 1    
    25   12   13 ar   
    26   12   77 1    
    27   13   14 ar   
    28   13   15 1    
    29   14   78 1    
    30   15   16 1    
    31   15   79 1    
    32   15   80 1    
    33   16   17 1    
    34   17   18 1    
    35   17   81 1    
    36   17   82 1    
    37   18   19 1    
    38   18   22 1    
    39   18   83 1    
    40   19   20 am   BACKBONE|DICT|INTERRES
    41   19   21 2    
    42   20   84 1    
    43   20   85 1    
    44   22   23 am   BACKBONE|DICT|INTERRES
    45   22   86 1    
    46   23   24 2    
    47   23   25 1    
    48   25   26 1    
    49   25   27 1    
    50   25   87 1    
    51   26   88 1    
    52   26   89 1    
    53   26   90 1    
    54   27   28 am   BACKBONE|DICT|INTERRES
    55   27   91 1    
    56   28   29 2    
    57   28   30 1    
    58   30   31 1    
    59   30   32 1    
    60   30   92 1    
    61   31   93 1    
    62   31   94 1    
    63   31   95 1    
    64   32   33 am   BACKBONE|DICT|INTERRES
    65   32   96 1    
    66   33   34 2    
    67   33   35 1    
    68   35   36 1    
    69   35   37 1    
    70   35   97 1    
    71   36   98 1    
    72   36   99 1    
    73   36  100 1    
    74   37   38 am   BACKBONE|DICT|INTERRES
    75   37  101 1    
    76   38   39 2    
    77   38   40 1    
    78   40   41 1    
    79   40   42 1    
    80   40  102 1    
    81   41  103 1    
    82   41  104 1    
    83   41  105 1    
    84   42   43 am   BACKBONE|DICT|INTERRES
    85   42  106 1    
    86   43   44 2    
    87   43   45 1    
    88   45   46 1    
    89   45   49 1    
    90   45  107 1    
    91   46   47 1    
    92   46  108 1    
    93   46  109 1    
    94   47   48 1    
    95   48  110 1    
    96   48  111 1    
    97   49   50 am   BACKBONE|DICT|INTERRES
    98   49  112 1    
    99   50   51 2    
   100   50   52 1    
   101   52   53 1    
   102   52   54 1    
   103   52  113 1    
   104   53  114 1    
   105   53  115 1    
   106   53  116 1    
   107   54   55 am   BACKBONE|DICT|INTERRES
   108   54  117 1    
   109   55   56 2    
   110   55   57 1    
   111   57   58 1    
   112   57   59 1    
   113   57  118 1    
   114   58  119 1    
   115   58  120 1    
   116   58  121 1    
   117   59   60 am   BACKBONE|DICT|INTERRES
   118   59  122 1    
   119   60   61 2    
   120   60   62 1    
   121   62   63 1    
   122   62   64 1    
   123   62  123 1    
   124   63  124 1    
   125   63  125 1    
   126   63  126 1    
   127   64   65 am   BACKBONE|DICT|INTERRES
   128   64  127 1    
   129   65   66 2    
@<TRIPOS>SUBSTRUCTURE
     1 UNK         1 GROUP             0       ****    0 ROOT    
