@<TRIPOS>MOLECULE
3R135
127   129    1
SMALL
USER_CHARGES


@<TRIPOS>ATOM
      1 CA        -84.4387   27.6133  -74.8712 C.3       0 UNK        -0.1998 
      2 C         -83.0718   26.9547  -74.7699 C.2       0 UNK         0.4909 
      3 O         -82.9904   25.7589  -74.4891 O.2       0 UNK        -0.5240 
      4 N         -81.9984   27.7196  -75.0225 N.am      1 UNK        -0.4739 
      5 CA        -80.5842   27.3136  -74.9103 C.3       1 UNK         0.0864 
      6 C6        -80.1389   27.0757  -73.4398 C.3       11 UNK        -0.0881 
      7 S7        -80.4110   28.5422  -72.3879 S.3       11 UNK        -0.2682 
      8 C8        -79.1706   28.3012  -71.0718 C.3       11 UNK         0.0289 
      9 C9        -77.7334   28.4442  -71.5620 C.ar      11 UNK        -0.0687 
     10 C10       -76.7884   27.4601  -71.2575 C.ar      11 UNK        -0.0823 
     11 C11       -75.4667   27.5862  -71.6946 C.ar      11 UNK        -0.0830 
     12 C12       -75.0964   28.7032  -72.4489 C.ar      11 UNK        -0.1021 
     13 C13       -76.0198   29.7182  -72.7354 C.ar      11 UNK        -0.0753 
     14 C14       -77.3359   29.5734  -72.2861 C.ar      11 UNK        -0.0933 
     15 C15       -75.6619   30.9912  -73.5107 C.3       11 UNK         0.0166 
     16 S16       -73.9120   31.1845  -74.0023 S.3       11 UNK        -0.2615 
     17 C17       -73.1324   31.5452  -72.3934 C.3       11 UNK        -0.0865 
     18 CA        -71.5856   31.6320  -72.4680 C.3       10 UNK         0.0862 
     19 C         -71.0126   32.0727  -71.0877 C.2       10 UNK         0.5551 
     20 N         -70.3108   31.2170  -70.3541 N.am      10 UNK        -0.7319 
     21 O         -71.2110   33.2139  -70.6782 O.2       10 UNK        -0.5018 
     22 N         -70.9789   30.4116  -73.0351 N.am      10 UNK        -0.4509 
     23 C         -69.7063   30.3066  -73.4372 C.2       10 UNK         0.4899 
     24 O         -68.9062   31.2426  -73.4240 O.2       10 UNK        -0.4839 
     25 CA        -69.2277   28.9311  -73.9347 C.3       9 UNK         0.0222 
     26 CB        -69.1028   27.9238  -72.7730 C.3       9 UNK        -0.1966 
     27 N         -70.0023   28.3829  -75.0564 N.am      9 UNK        -0.4218 
     28 C         -71.2690   27.9477  -75.0649 C.2       9 UNK         0.5020 
     29 O         -72.0094   27.9430  -74.0778 O.2       9 UNK        -0.5274 
     30 CA        -71.7709   27.3751  -76.4006 C.3       8 UNK         0.0270 
     31 CB        -71.4867   25.8666  -76.4777 C.3       8 UNK        -0.1976 
     32 N         -73.2063   27.6056  -76.5549 N.am      8 UNK        -0.4313 
     33 C         -73.7435   28.7786  -76.9148 C.2       8 UNK         0.5041 
     34 O         -73.0730   29.7369  -77.3049 O.2       8 UNK        -0.5577 
     35 CA        -75.2767   28.9117  -76.8016 C.3       7 UNK         0.0284 
     36 CB        -75.8558   30.0203  -77.7058 C.3       7 UNK        -0.1958 
     37 N         -76.0065   27.6514  -76.9793 N.am      7 UNK        -0.4454 
     38 C         -76.0520   26.8732  -78.0714 C.2       7 UNK         0.5089 
     39 O         -75.4797   27.1272  -79.1320 O.2       7 UNK        -0.5125 
     40 CA        -76.8840   25.5834  -77.9206 C.3       6 UNK         0.0408 
     41 CB        -76.6560   24.5670  -79.0584 C.3       6 UNK        -0.1791 
     42 N         -76.7119   24.9562  -76.6016 N.am      6 UNK        -0.4762 
     43 C         -75.5605   24.5041  -76.0780 C.2       6 UNK         0.5007 
     44 O         -74.4971   24.4749  -76.6963 O.2       6 UNK        -0.5032 
     45 CA        -75.5556   24.0991  -74.5917 C.3       5 UNK         0.0783 
     46 C46       -74.8369   25.2026  -73.7753 C.3       11 UNK        -0.0857 
     47 S47       -74.8290   24.8795  -71.9813 S.3       11 UNK        -0.2512 
     48 C48       -74.4247   26.5328  -71.3335 C.3       11 UNK         0.0225 
     49 N         -76.8869   23.8085  -74.0498 N.am      5 UNK        -0.4615 
     50 C         -77.6060   22.7098  -74.3032 C.2       4 UNK         0.5053 
     51 O         -77.2905   21.8650  -75.1415 O.2       4 UNK        -0.5105 
     52 CA        -78.8707   22.4935  -73.4584 C.3       4 UNK         0.0263 
     53 CB        -78.9742   23.4116  -72.2212 C.3       4 UNK        -0.1981 
     54 N         -80.0409   22.6953  -74.3045 N.am      4 UNK        -0.4224 
     55 C         -81.0463   21.8235  -74.4631 C.2       3 UNK         0.4895 
     56 O         -81.0966   20.7297  -73.8981 O.2       3 UNK        -0.5091 
     57 CA        -82.2114   22.2289  -75.3883 C.3       3 UNK         0.0250 
     58 CB        -83.5013   22.4301  -74.5751 C.3       3 UNK        -0.1996 
     59 N         -81.9377   23.4438  -76.1607 N.am      3 UNK        -0.4254 
     60 C         -81.1923   23.4735  -77.2759 C.2       2 UNK         0.5004 
     61 O         -80.7374   22.4651  -77.8161 O.2       2 UNK        -0.5226 
     62 CA        -80.8735   24.8507  -77.8882 C.3       2 UNK         0.0269 
     63 CB        -81.7992   25.1341  -79.0819 C.3       2 UNK        -0.1926 
     64 N         -80.9559   25.9715  -76.9444 N.am      2 UNK        -0.4687 
     65 C         -80.2262   26.1193  -75.8279 C.2       1 UNK         0.5165 
     66 O         -79.3309   25.3365  -75.5038 O.2       1 UNK        -0.5079 
     67 H67       -85.0427   27.1095  -75.6252 H         1 UNK         0.0900 
     68 H68       -84.9578   27.5434  -73.9158 H         1 UNK         0.0900 
     69 H69       -84.3655   28.6666  -75.1413 H         1 UNK         0.0900 
     70 H70       -82.1418   28.6922  -75.2577 H         1 UNK         0.2959 
     71 H71       -79.9975   28.1492  -75.2954 H         1 UNK         0.1079 
     72 H72       -79.0782   26.8211  -73.4020 H         1 UNK         0.0837 
     73 H73       -80.6763   26.2313  -73.0048 H         1 UNK         0.0837 
     74 H74       -79.3324   27.3237  -70.6146 H         1 UNK         0.0685 
     75 H75       -79.3449   29.0403  -70.2889 H         1 UNK         0.0685 
     76 H76       -77.0762   26.5943  -70.6767 H         1 UNK         0.1434 
     77 H77       -74.0757   28.7792  -72.7918 H         1 UNK         0.1329 
     78 H78       -78.0608   30.3467  -72.5018 H         1 UNK         0.1335 
     79 H79       -76.2707   31.0264  -74.4150 H         1 UNK         0.0680 
     80 H80       -75.9501   31.8608  -72.9182 H         1 UNK         0.0680 
     81 H81       -73.4309   30.7894  -71.6657 H         1 UNK         0.1032 
     82 H82       -73.5473   32.4886  -72.0327 H         1 UNK         0.1032 
     83 H83       -71.3447   32.4425  -73.1588 H         1 UNK         0.0461 
     84 H84       -69.9428   31.5134  -69.4639 H         1 UNK         0.3453 
     85 H85       -70.1469   30.2798  -70.6836 H         1 UNK         0.3453 
     86 H86       -71.5798   29.6000  -73.1457 H         1 UNK         0.2984 
     87 H87       -68.2219   29.0802  -74.3312 H         1 UNK         0.0554 
     88 H88       -68.4423   28.3087  -71.9950 H         1 UNK         0.0847 
     89 H89       -68.6823   26.9778  -73.1139 H         1 UNK         0.0847 
     90 H90       -70.0636   27.7108  -72.3038 H         1 UNK         0.0847 
     91 H91       -69.5007   28.3533  -75.9338 H         1 UNK         0.3141 
     92 H92       -71.2460   27.8679  -77.2220 H         1 UNK         0.0743 
     93 H93       -70.4158   25.6665  -76.4252 H         1 UNK         0.0784 
     94 H94       -71.8501   25.4418  -77.4139 H         1 UNK         0.0784 
     95 H95       -71.9586   25.3222  -75.6594 H         1 UNK         0.0784 
     96 H96       -73.8174   26.8567  -76.2648 H         1 UNK         0.3213 
     97 H97       -75.4606   29.2066  -75.7691 H         1 UNK         0.0855 
     98 H98       -75.6546   29.8280  -78.7601 H         1 UNK         0.0814 
     99 H99       -75.4181   30.9895  -77.4628 H         1 UNK         0.0814 
    100 H100      -76.9342   30.1140  -77.5794 H         1 UNK         0.0814 
    101 H101      -76.5179   27.3292  -76.1699 H         1 UNK         0.3105 
    102 H102      -77.9221   25.9076  -77.9719 H         1 UNK         0.0547 
    103 H103      -77.2747   23.6795  -78.9260 H         1 UNK         0.0837 
    104 H104      -75.6155   24.2461  -79.1147 H         1 UNK         0.0837 
    105 H105      -76.9134   25.0001  -80.0256 H         1 UNK         0.0837 
    106 H106      -77.5445   24.9420  -76.0159 H         1 UNK         0.3020 
    107 H107      -74.9641   23.1834  -74.5196 H         1 UNK         0.1245 
    108 H108      -75.3126   26.1678  -73.9563 H         1 UNK         0.0781 
    109 H109      -73.7993   25.3107  -74.0965 H         1 UNK         0.0781 
    110 H110      -73.4374   26.8195  -71.7007 H         1 UNK         0.0836 
    111 H111      -74.3415   26.4753  -70.2474 H         1 UNK         0.0836 
    112 H112      -77.2182   24.4452  -73.3407 H         1 UNK         0.3022 
    113 H113      -78.8262   21.4611  -73.1057 H         1 UNK         0.0747 
    114 H114      -79.8507   23.1592  -71.6242 H         1 UNK         0.0793 
    115 H115      -78.1045   23.3004  -71.5716 H         1 UNK         0.0793 
    116 H116      -79.0580   24.4634  -72.4932 H         1 UNK         0.0793 
    117 H117      -80.0426   23.5536  -74.8456 H         1 UNK         0.3047 
    118 H118      -82.3773   21.4019  -76.0821 H         1 UNK         0.0822 
    119 H119      -84.3364   22.7139  -75.2155 H         1 UNK         0.0807 
    120 H120      -83.3824   23.2032  -73.8151 H         1 UNK         0.0807 
    121 H121      -83.7856   21.5113  -74.0605 H         1 UNK         0.0807 
    122 H122      -82.2717   24.3161  -75.7608 H         1 UNK         0.2946 
    123 H123      -79.8499   24.7934  -78.2591 H         1 UNK         0.1144 
    124 H124      -81.5197   26.0564  -79.5916 H         1 UNK         0.0793 
    125 H125      -82.8413   25.2221  -78.7722 H         1 UNK         0.0793 
    126 H126      -81.7448   24.3311  -79.8186 H         1 UNK         0.0793 
    127 H127      -81.6783   26.6551  -77.1209 H         1 UNK         0.2896 
@<TRIPOS>BOND
     1    1    2 1    
     2    1   67 1    
     3    1   68 1    
     4    1   69 1    
     5    2    3 2    
     6    2    4 am   BACKBONE|DICT|INTERRES
     7    4    5 1    
     8    4   70 1    
     9    5    6 1    
    10    5   65 1    
    11    5   71 1    
    12    6    7 1    
    13    6   72 1    
    14    6   73 1    
    15    7    8 1    
    16    8    9 1    
    17    8   74 1    
    18    8   75 1    
    19    9   10 ar   
    20    9   14 ar   
    21   10   11 ar   
    22   10   76 1    
    23   11   12 ar   
    24   11   48 1    
    25   12   13 ar   
    26   12   77 1    
    27   13   14 ar   
    28   13   15 1    
    29   14   78 1    
    30   15   16 1    
    31   15   79 1    
    32   15   80 1    
    33   16   17 1    
    34   17   18 1    
    35   17   81 1    
    36   17   82 1    
    37   18   19 1    
    38   18   22 1    
    39   18   83 1    
    40   19   20 am   BACKBONE|DICT|INTERRES
    41   19   21 2    
    42   20   84 1    
    43   20   85 1    
    44   22   23 am   BACKBONE|DICT|INTERRES
    45   22   86 1    
    46   23   24 2    
    47   23   25 1    
    48   25   26 1    
    49   25   27 1    
    50   25   87 1    
    51   26   88 1    
    52   26   89 1    
    53   26   90 1    
    54   27   28 am   BACKBONE|DICT|INTERRES
    55   27   91 1    
    56   28   29 2    
    57   28   30 1    
    58   30   31 1    
    59   30   32 1    
    60   30   92 1    
    61   31   93 1    
    62   31   94 1    
    63   31   95 1    
    64   32   33 am   BACKBONE|DICT|INTERRES
    65   32   96 1    
    66   33   34 2    
    67   33   35 1    
    68   35   36 1    
    69   35   37 1    
    70   35   97 1    
    71   36   98 1    
    72   36   99 1    
    73   36  100 1    
    74   37   38 am   BACKBONE|DICT|INTERRES
    75   37  101 1    
    76   38   39 2    
    77   38   40 1    
    78   40   41 1    
    79   40   42 1    
    80   40  102 1    
    81   41  103 1    
    82   41  104 1    
    83   41  105 1    
    84   42   43 am   BACKBONE|DICT|INTERRES
    85   42  106 1    
    86   43   44 2    
    87   43   45 1    
    88   45   46 1    
    89   45   49 1    
    90   45  107 1    
    91   46   47 1    
    92   46  108 1    
    93   46  109 1    
    94   47   48 1    
    95   48  110 1    
    96   48  111 1    
    97   49   50 am   BACKBONE|DICT|INTERRES
    98   49  112 1    
    99   50   51 2    
   100   50   52 1    
   101   52   53 1    
   102   52   54 1    
   103   52  113 1    
   104   53  114 1    
   105   53  115 1    
   106   53  116 1    
   107   54   55 am   BACKBONE|DICT|INTERRES
   108   54  117 1    
   109   55   56 2    
   110   55   57 1    
   111   57   58 1    
   112   57   59 1    
   113   57  118 1    
   114   58  119 1    
   115   58  120 1    
   116   58  121 1    
   117   59   60 am   BACKBONE|DICT|INTERRES
   118   59  122 1    
   119   60   61 2    
   120   60   62 1    
   121   62   63 1    
   122   62   64 1    
   123   62  123 1    
   124   63  124 1    
   125   63  125 1    
   126   63  126 1    
   127   64   65 am   BACKBONE|DICT|INTERRES
   128   64  127 1    
   129   65   66 2    
@<TRIPOS>SUBSTRUCTURE
     1 UNK         1 GROUP             0       ****    0 ROOT    
