@<TRIPOS>MOLECULE
3R135
127   129    1
SMALL
USER_CHARGES


@<TRIPOS>ATOM
      1 CA        -84.2422   24.0645  -74.2051 C.3       0 UNK        -0.1998 
      2 C         -83.6293   25.4527  -74.1062 C.2       0 UNK         0.4909 
      3 O         -83.4983   26.1388  -75.1203 O.2       0 UNK        -0.5240 
      4 N         -83.2426   25.8743  -72.8945 N.am      1 UNK        -0.4739 
      5 CA        -82.5348   27.1344  -72.6439 C.3       1 UNK         0.0864 
      6 C6        -82.4596   27.4463  -71.1297 C.3       11 UNK        -0.0881 
      7 S7        -82.1525   29.2142  -70.7932 S.3       11 UNK        -0.2682 
      8 C8        -80.6720   29.1557  -69.7327 C.3       11 UNK         0.0289 
      9 C9        -79.4066   28.8683  -70.5277 C.ar      11 UNK        -0.0687 
     10 C10       -78.8758   27.5772  -70.5734 C.ar      11 UNK        -0.0823 
     11 C11       -77.7156   27.3009  -71.3034 C.ar      11 UNK        -0.0830 
     12 C12       -77.0746   28.3498  -71.9763 C.ar      11 UNK        -0.1021 
     13 C13       -77.5985   29.6480  -71.9483 C.ar      11 UNK        -0.0753 
     14 C14       -78.7637   29.8982  -71.2178 C.ar      11 UNK        -0.0933 
     15 C15       -76.9561   30.7776  -72.7472 C.3       11 UNK         0.0166 
     16 S16       -75.1860   31.0015  -72.3849 S.3       11 UNK        -0.2615 
     17 C17       -74.4315   30.1486  -73.8119 C.3       11 UNK        -0.0865 
     18 CA        -72.9347   29.7970  -73.5925 C.3       10 UNK         0.0862 
     19 C         -72.7374   28.5194  -72.7273 C.2       10 UNK         0.5551 
     20 N         -72.2828   27.3971  -73.2699 N.am      10 UNK        -0.7319 
     21 O         -72.9674   28.5542  -71.5217 O.2       10 UNK        -0.5018 
     22 N         -72.1936   29.7881  -74.8636 N.am      10 UNK        -0.4509 
     23 C         -71.7128   30.8875  -75.4639 C.2       10 UNK         0.4899 
     24 O         -71.8853   32.0276  -75.0291 O.2       10 UNK        -0.4839 
     25 CA        -70.9197   30.6940  -76.7758 C.3       9 UNK         0.0222 
     26 CB        -69.9386   31.8520  -77.0600 C.3       9 UNK        -0.1966 
     27 N         -70.2388   29.3974  -76.8575 N.am      9 UNK        -0.4218 
     28 C         -69.3124   28.9070  -76.0200 C.2       9 UNK         0.5020 
     29 O         -68.7886   29.5634  -75.1182 O.2       9 UNK        -0.5274 
     30 CA        -68.9165   27.4259  -76.2042 C.3       8 UNK         0.0270 
     31 CB        -68.6832   26.7275  -74.8473 C.3       8 UNK        -0.1976 
     32 N         -69.8354   26.6201  -77.0278 N.am      8 UNK        -0.4313 
     33 C         -71.1435   26.4008  -76.8270 C.2       8 UNK         0.5041 
     34 O         -71.8198   26.9682  -75.9619 O.2       8 UNK        -0.5577 
     35 CA        -71.7990   25.3744  -77.7556 C.3       7 UNK         0.0284 
     36 CB        -71.3306   23.9475  -77.4042 C.3       7 UNK        -0.1958 
     37 N         -73.2502   25.4660  -77.6236 N.am      7 UNK        -0.4454 
     38 C         -74.1406   24.9702  -78.4901 C.2       7 UNK         0.5089 
     39 O         -73.8193   24.4448  -79.5582 O.2       7 UNK        -0.5125 
     40 CA        -75.6346   25.0708  -78.1056 C.3       6 UNK         0.0408 
     41 CB        -76.4964   24.0220  -78.8381 C.3       6 UNK        -0.1791 
     42 N         -75.9127   25.0242  -76.6618 N.am      6 UNK        -0.4762 
     43 C         -75.5196   24.0889  -75.7800 C.2       6 UNK         0.5007 
     44 O         -74.8162   23.1192  -76.0645 O.2       6 UNK        -0.5032 
     45 CA        -76.0248   24.2538  -74.3367 C.3       5 UNK         0.0783 
     46 C46       -75.6475   25.6320  -73.7314 C.3       11 UNK        -0.0857 
     47 S47       -75.5179   25.5691  -71.9125 S.3       11 UNK        -0.2512 
     48 C48       -77.2365   25.8484  -71.3574 C.3       11 UNK         0.0225 
     49 N         -77.4700   24.0384  -74.3360 N.am      5 UNK        -0.4615 
     50 C         -78.0739   22.8510  -74.1976 C.2       4 UNK         0.5053 
     51 O         -77.4785   21.8035  -73.9454 O.2       4 UNK        -0.5105 
     52 CA        -79.6034   22.8203  -74.3759 C.3       4 UNK         0.0263 
     53 CB        -80.3111   22.8140  -73.0108 C.3       4 UNK        -0.1981 
     54 N         -80.0856   23.9470  -75.1818 N.am      4 UNK        -0.4224 
     55 C         -79.9886   23.9931  -76.5209 C.2       3 UNK         0.4895 
     56 O         -79.6047   23.0427  -77.2027 O.2       3 UNK        -0.5091 
     57 CA        -80.3585   25.3067  -77.2358 C.3       3 UNK         0.0250 
     58 CB        -81.7117   25.1704  -77.9519 C.3       3 UNK        -0.1996 
     59 N         -80.3866   26.4750  -76.3527 N.am      3 UNK        -0.4254 
     60 C         -79.2997   27.0490  -75.8147 C.2       2 UNK         0.5004 
     61 O         -78.1486   26.6662  -76.0256 O.2       2 UNK        -0.5226 
     62 CA        -79.5316   28.2037  -74.8244 C.3       2 UNK         0.0269 
     63 CB        -79.4471   29.5602  -75.5396 C.3       2 UNK        -0.1926 
     64 N         -80.7937   28.1171  -74.0811 N.am      2 UNK        -0.4687 
     65 C         -81.1404   27.0854  -73.2991 C.2       1 UNK         0.5165 
     66 O         -80.4279   26.0938  -73.1267 O.2       1 UNK        -0.5079 
     67 H67       -84.3106   23.5786  -73.2321 H         1 UNK         0.0900 
     68 H68       -83.6364   23.4354  -74.8570 H         1 UNK         0.0900 
     69 H69       -85.2454   24.1264  -74.6258 H         1 UNK         0.0900 
     70 H70       -83.3484   25.2622  -72.0983 H         1 UNK         0.2959 
     71 H71       -83.1184   27.9216  -73.1272 H         1 UNK         0.1079 
     72 H72       -83.4131   27.2060  -70.6566 H         1 UNK         0.0837 
     73 H73       -81.7200   26.8171  -70.6320 H         1 UNK         0.0837 
     74 H74       -80.5682   30.1168  -69.2268 H         1 UNK         0.0685 
     75 H75       -80.8130   28.4147  -68.9442 H         1 UNK         0.0685 
     76 H76       -79.3794   26.7752  -70.0514 H         1 UNK         0.1434 
     77 H77       -76.1755   28.1607  -72.5394 H         1 UNK         0.1329 
     78 H78       -79.1840   30.8944  -71.1948 H         1 UNK         0.1335 
     79 H79       -77.1020   30.5932  -73.8121 H         1 UNK         0.0680 
     80 H80       -77.4580   31.7231  -72.5357 H         1 UNK         0.0680 
     81 H81       -75.0011   29.2596  -74.0850 H         1 UNK         0.1032 
     82 H82       -74.5381   30.8279  -74.6590 H         1 UNK         0.1032 
     83 H83       -72.4897   30.5927  -72.9910 H         1 UNK         0.0461 
     84 H84       -72.1581   26.5987  -72.6698 H         1 UNK         0.3453 
     85 H85       -72.1022   27.3005  -74.2672 H         1 UNK         0.3453 
     86 H86       -72.0057   28.8770  -75.2686 H         1 UNK         0.2984 
     87 H87       -71.6630   30.6924  -77.5741 H         1 UNK         0.0554 
     88 H88       -69.3975   31.6948  -77.9929 H         1 UNK         0.0847 
     89 H89       -69.2050   31.9670  -76.2616 H         1 UNK         0.0847 
     90 H90       -70.4681   32.8011  -77.1517 H         1 UNK         0.0847 
     91 H91       -70.6011   28.7605  -77.5529 H         1 UNK         0.3141 
     92 H92       -67.9644   27.4389  -76.7369 H         1 UNK         0.0743 
     93 H93       -69.5839   26.7303  -74.2327 H         1 UNK         0.0784 
     94 H94       -68.3734   25.6912  -74.9819 H         1 UNK         0.0784 
     95 H95       -67.8985   27.2245  -74.2756 H         1 UNK         0.0784 
     96 H96       -69.3939   26.1287  -77.7939 H         1 UNK         0.3213 
     97 H97       -71.5188   25.6144  -78.7835 H         1 UNK         0.0855 
     98 H98       -71.6140   23.6740  -76.3868 H         1 UNK         0.0814 
     99 H99       -70.2469   23.8511  -77.4792 H         1 UNK         0.0814 
    100 H100      -71.7627   23.2073  -78.0776 H         1 UNK         0.0814 
    101 H101      -73.5649   25.9398  -76.7861 H         1 UNK         0.3105 
    102 H102      -75.9623   26.0557  -78.4409 H         1 UNK         0.0547 
    103 H103      -76.3950   24.1100  -79.9203 H         1 UNK         0.0837 
    104 H104      -76.2123   23.0056  -78.5639 H         1 UNK         0.0837 
    105 H105      -77.5529   24.1476  -78.6069 H         1 UNK         0.0837 
    106 H106      -76.5525   25.7462  -76.3335 H         1 UNK         0.3020 
    107 H107      -75.5388   23.4725  -73.7467 H         1 UNK         0.1245 
    108 H108      -76.3529   26.4067  -74.0332 H         1 UNK         0.0781 
    109 H109      -74.6706   25.9601  -74.0921 H         1 UNK         0.0781 
    110 H110      -77.3192   25.4201  -70.3574 H         1 UNK         0.0836 
    111 H111      -77.9218   25.2780  -71.9836 H         1 UNK         0.0836 
    112 H112      -78.0363   24.8375  -74.5845 H         1 UNK         0.3022 
    113 H113      -79.8591   21.8899  -74.8879 H         1 UNK         0.0747 
    114 H114      -81.3951   22.8372  -73.1222 H         1 UNK         0.0793 
    115 H115      -80.0614   21.9113  -72.4519 H         1 UNK         0.0793 
    116 H116      -80.0170   23.6632  -72.3941 H         1 UNK         0.0793 
    117 H117      -80.3876   24.7701  -74.6700 H         1 UNK         0.3047 
    118 H118      -79.5937   25.4851  -77.9947 H         1 UNK         0.0822 
    119 H119      -81.9741   26.0832  -78.4869 H         1 UNK         0.0807 
    120 H120      -82.5185   24.9442  -77.2549 H         1 UNK         0.0807 
    121 H121      -81.6834   24.3633  -78.6852 H         1 UNK         0.0807 
    122 H122      -81.2994   26.8246  -76.0907 H         1 UNK         0.2946 
    123 H123      -78.7238   28.1495  -74.0955 H         1 UNK         0.1144 
    124 H124      -80.2471   29.6819  -76.2709 H         1 UNK         0.0793 
    125 H125      -78.4998   29.6622  -76.0711 H         1 UNK         0.0793 
    126 H126      -79.5096   30.3862  -74.8309 H         1 UNK         0.0793 
    127 H127      -81.4313   28.8944  -74.1777 H         1 UNK         0.2896 
@<TRIPOS>BOND
     1    1    2 1    
     2    1   67 1    
     3    1   68 1    
     4    1   69 1    
     5    2    3 2    
     6    2    4 am   BACKBONE|DICT|INTERRES
     7    4    5 1    
     8    4   70 1    
     9    5    6 1    
    10    5   65 1    
    11    5   71 1    
    12    6    7 1    
    13    6   72 1    
    14    6   73 1    
    15    7    8 1    
    16    8    9 1    
    17    8   74 1    
    18    8   75 1    
    19    9   10 ar   
    20    9   14 ar   
    21   10   11 ar   
    22   10   76 1    
    23   11   12 ar   
    24   11   48 1    
    25   12   13 ar   
    26   12   77 1    
    27   13   14 ar   
    28   13   15 1    
    29   14   78 1    
    30   15   16 1    
    31   15   79 1    
    32   15   80 1    
    33   16   17 1    
    34   17   18 1    
    35   17   81 1    
    36   17   82 1    
    37   18   19 1    
    38   18   22 1    
    39   18   83 1    
    40   19   20 am   BACKBONE|DICT|INTERRES
    41   19   21 2    
    42   20   84 1    
    43   20   85 1    
    44   22   23 am   BACKBONE|DICT|INTERRES
    45   22   86 1    
    46   23   24 2    
    47   23   25 1    
    48   25   26 1    
    49   25   27 1    
    50   25   87 1    
    51   26   88 1    
    52   26   89 1    
    53   26   90 1    
    54   27   28 am   BACKBONE|DICT|INTERRES
    55   27   91 1    
    56   28   29 2    
    57   28   30 1    
    58   30   31 1    
    59   30   32 1    
    60   30   92 1    
    61   31   93 1    
    62   31   94 1    
    63   31   95 1    
    64   32   33 am   BACKBONE|DICT|INTERRES
    65   32   96 1    
    66   33   34 2    
    67   33   35 1    
    68   35   36 1    
    69   35   37 1    
    70   35   97 1    
    71   36   98 1    
    72   36   99 1    
    73   36  100 1    
    74   37   38 am   BACKBONE|DICT|INTERRES
    75   37  101 1    
    76   38   39 2    
    77   38   40 1    
    78   40   41 1    
    79   40   42 1    
    80   40  102 1    
    81   41  103 1    
    82   41  104 1    
    83   41  105 1    
    84   42   43 am   BACKBONE|DICT|INTERRES
    85   42  106 1    
    86   43   44 2    
    87   43   45 1    
    88   45   46 1    
    89   45   49 1    
    90   45  107 1    
    91   46   47 1    
    92   46  108 1    
    93   46  109 1    
    94   47   48 1    
    95   48  110 1    
    96   48  111 1    
    97   49   50 am   BACKBONE|DICT|INTERRES
    98   49  112 1    
    99   50   51 2    
   100   50   52 1    
   101   52   53 1    
   102   52   54 1    
   103   52  113 1    
   104   53  114 1    
   105   53  115 1    
   106   53  116 1    
   107   54   55 am   BACKBONE|DICT|INTERRES
   108   54  117 1    
   109   55   56 2    
   110   55   57 1    
   111   57   58 1    
   112   57   59 1    
   113   57  118 1    
   114   58  119 1    
   115   58  120 1    
   116   58  121 1    
   117   59   60 am   BACKBONE|DICT|INTERRES
   118   59  122 1    
   119   60   61 2    
   120   60   62 1    
   121   62   63 1    
   122   62   64 1    
   123   62  123 1    
   124   63  124 1    
   125   63  125 1    
   126   63  126 1    
   127   64   65 am   BACKBONE|DICT|INTERRES
   128   64  127 1    
   129   65   66 2    
@<TRIPOS>SUBSTRUCTURE
     1 UNK         1 GROUP             0       ****    0 ROOT    
