@<TRIPOS>MOLECULE
3R135
127   129    1
SMALL
USER_CHARGES


@<TRIPOS>ATOM
      1 CA        -80.4287   30.8670  -70.8863 C.3       0 UNK        -0.1998 
      2 C         -81.3003   29.9841  -71.7663 C.2       0 UNK         0.4909 
      3 O         -82.2818   29.4170  -71.2858 O.2       0 UNK        -0.5240 
      4 N         -80.9498   29.8710  -73.0540 N.am      1 UNK        -0.4739 
      5 CA        -81.6360   29.0581  -74.0662 C.3       1 UNK         0.0864 
      6 C6        -81.1749   29.3717  -75.5218 C.3       11 UNK        -0.0881 
      7 S7        -79.4847   30.0477  -75.7246 S.3       11 UNK        -0.2682 
      8 C8        -78.4293   28.5570  -75.7324 C.3       11 UNK         0.0289 
      9 C9        -77.5776   28.3368  -74.4767 C.ar      11 UNK        -0.0687 
     10 C10       -76.7893   27.1836  -74.4139 C.ar      11 UNK        -0.0823 
     11 C11       -75.9406   26.9474  -73.3299 C.ar      11 UNK        -0.0830 
     12 C12       -75.9004   27.8610  -72.2769 C.ar      11 UNK        -0.1021 
     13 C13       -76.6736   29.0232  -72.3199 C.ar      11 UNK        -0.0753 
     14 C14       -77.5085   29.2556  -73.4177 C.ar      11 UNK        -0.0933 
     15 C15       -76.5680   30.0453  -71.1971 C.3       11 UNK         0.0166 
     16 S16       -74.9083   30.7951  -71.1168 S.3       11 UNK        -0.2615 
     17 C17       -74.8587   31.7925  -72.6489 C.3       11 UNK        -0.0865 
     18 CA        -74.3026   31.0329  -73.8915 C.3       10 UNK         0.0862 
     19 C         -74.3137   31.8975  -75.1884 C.2       10 UNK         0.5551 
     20 N         -73.5853   31.5178  -76.2308 N.am      10 UNK        -0.7319 
     21 O         -74.9965   32.9166  -75.2638 O.2       10 UNK        -0.5018 
     22 N         -73.0274   30.3463  -73.6339 N.am      10 UNK        -0.4509 
     23 C         -71.8381   30.9103  -73.3960 C.2       10 UNK         0.4899 
     24 O         -71.6544   32.1264  -73.3346 O.2       10 UNK        -0.4839 
     25 CA        -70.6311   29.9670  -73.2075 C.3       9 UNK         0.0222 
     26 CB        -70.4481   29.5933  -71.7230 C.3       9 UNK        -0.1966 
     27 N         -70.6413   28.7782  -74.0780 N.am      9 UNK        -0.4218 
     28 C         -71.4777   27.7308  -74.0525 C.2       9 UNK         0.5020 
     29 O         -72.3600   27.5711  -73.2088 O.2       9 UNK        -0.5274 
     30 CA        -71.3630   26.7289  -75.2140 C.3       8 UNK         0.0270 
     31 CB        -71.0953   25.3084  -74.6898 C.3       8 UNK        -0.1976 
     32 N         -72.5801   26.7237  -76.0333 N.am      8 UNK        -0.4313 
     33 C         -73.0716   27.7931  -76.6829 C.2       8 UNK         0.5041 
     34 O         -72.5116   28.8909  -76.6987 O.2       8 UNK        -0.5577 
     35 CA        -74.3910   27.6143  -77.4525 C.3       7 UNK         0.0284 
     36 CB        -74.5321   28.5837  -78.6418 C.3       7 UNK        -0.1958 
     37 N         -74.5383   26.2366  -77.9154 N.am      7 UNK        -0.4454 
     38 C         -75.6880   25.5573  -77.9577 C.2       7 UNK         0.5089 
     39 O         -76.7869   26.0423  -77.6873 O.2       7 UNK        -0.5125 
     40 CA        -75.6007   24.0677  -78.3271 C.3       6 UNK         0.0408 
     41 CB        -74.3747   23.6950  -79.1921 C.3       6 UNK        -0.1791 
     42 N         -75.6804   23.2350  -77.1236 N.am      6 UNK        -0.4762 
     43 C         -74.8278   23.2090  -76.0844 C.2       6 UNK         0.5007 
     44 O         -73.7917   23.8773  -76.0501 O.2       6 UNK        -0.5032 
     45 CA        -75.1930   22.3070  -74.8788 C.3       5 UNK         0.0783 
     46 C46       -74.7984   22.9315  -73.5116 C.3       11 UNK        -0.0857 
     47 S47       -75.9623   24.2185  -72.9329 S.3       11 UNK        -0.2512 
     48 C48       -75.0369   25.7274  -73.3227 C.3       11 UNK         0.0225 
     49 N         -76.6102   21.9411  -74.8847 N.am      5 UNK        -0.4615 
     50 C         -77.1656   20.8488  -75.4146 C.2       4 UNK         0.5053 
     51 O         -76.5295   19.9334  -75.9354 O.2       4 UNK        -0.5105 
     52 CA        -78.7046   20.8016  -75.3838 C.3       4 UNK         0.0263 
     53 CB        -79.1944   20.0550  -74.1332 C.3       4 UNK        -0.1981 
     54 N         -79.3247   22.1341  -75.4244 N.am      4 UNK        -0.4224 
     55 C         -79.2366   22.9975  -76.4440 C.2       3 UNK         0.4895 
     56 O         -78.6303   22.7416  -77.4841 O.2       3 UNK        -0.5091 
     57 CA        -79.9106   24.3765  -76.3017 C.3       3 UNK         0.0250 
     58 CB        -81.3585   24.3226  -76.8243 C.3       3 UNK        -0.1996 
     59 N         -79.8657   25.0153  -74.9746 N.am      3 UNK        -0.4254 
     60 C         -80.4084   24.6160  -73.8142 C.2       2 UNK         0.5004 
     61 O         -80.9066   23.5055  -73.6281 O.2       2 UNK        -0.5226 
     62 CA        -80.4354   25.6493  -72.6713 C.3       2 UNK         0.0269 
     63 CB        -79.2066   25.5108  -71.7624 C.3       2 UNK        -0.1926 
     64 N         -80.5568   27.0441  -73.1175 N.am      2 UNK        -0.4687 
     65 C         -81.6193   27.5432  -73.7691 C.2       1 UNK         0.5165 
     66 O         -82.5836   26.8609  -74.1182 O.2       1 UNK        -0.5079 
     67 H67       -79.8482   30.2535  -70.1977 H         1 UNK         0.0900 
     68 H68       -81.0495   31.5441  -70.3002 H         1 UNK         0.0900 
     69 H69       -79.7381   31.4705  -71.4748 H         1 UNK         0.0900 
     70 H70       -80.1530   30.3828  -73.4051 H         1 UNK         0.2959 
     71 H71       -82.6910   29.3366  -74.0039 H         1 UNK         0.1079 
     72 H72       -81.3057   28.5179  -76.1905 H         1 UNK         0.0837 
     73 H73       -81.8423   30.1337  -75.9274 H         1 UNK         0.0837 
     74 H74       -79.0431   27.6761  -75.9192 H         1 UNK         0.0685 
     75 H75       -77.7540   28.6374  -76.5858 H         1 UNK         0.0685 
     76 H76       -76.8163   26.4689  -75.2232 H         1 UNK         0.1434 
     77 H77       -75.2366   27.6903  -71.4402 H         1 UNK         0.1329 
     78 H78       -78.0712   30.1755  -73.4480 H         1 UNK         0.1335 
     79 H79       -77.3143   30.8329  -71.3057 H         1 UNK         0.0680 
     80 H80       -76.7780   29.5512  -70.2475 H         1 UNK         0.0680 
     81 H81       -75.8635   32.1670  -72.8521 H         1 UNK         0.1032 
     82 H82       -74.2482   32.6751  -72.4516 H         1 UNK         0.1032 
     83 H83       -75.0004   30.2288  -74.1156 H         1 UNK         0.0461 
     84 H84       -73.0698   30.6410  -76.2208 H         1 UNK         0.3453 
     85 H85       -73.5924   32.0819  -77.0647 H         1 UNK         0.3453 
     86 H86       -73.0671   29.3323  -73.6117 H         1 UNK         0.2984 
     87 H87       -69.7483   30.5334  -73.5084 H         1 UNK         0.0554 
     88 H88       -71.3152   29.0663  -71.3235 H         1 UNK         0.0847 
     89 H89       -70.3098   30.4875  -71.1140 H         1 UNK         0.0847 
     90 H90       -69.5725   28.9613  -71.5759 H         1 UNK         0.0847 
     91 H91       -70.0001   28.8289  -74.8581 H         1 UNK         0.3141 
     92 H92       -70.5297   27.0184  -75.8573 H         1 UNK         0.0743 
     93 H93       -71.9088   24.9526  -74.0564 H         1 UNK         0.0784 
     94 H94       -70.9757   24.5982  -75.5083 H         1 UNK         0.0784 
     95 H95       -70.1814   25.2772  -74.0954 H         1 UNK         0.0784 
     96 H96       -73.1013   25.8529  -76.0474 H         1 UNK         0.3213 
     97 H97       -75.1820   27.8422  -76.7355 H         1 UNK         0.0855 
     98 H98       -73.7371   28.4382  -79.3738 H         1 UNK         0.0814 
     99 H99       -74.4884   29.6219  -78.3110 H         1 UNK         0.0814 
    100 H100      -75.4869   28.4507  -79.1504 H         1 UNK         0.0814 
    101 H101      -73.6841   25.7471  -78.1447 H         1 UNK         0.3105 
    102 H102      -76.4918   23.8459  -78.9162 H         1 UNK         0.0547 
    103 H103      -74.3269   24.3141  -80.0890 H         1 UNK         0.0837 
    104 H104      -73.4288   23.8077  -78.6625 H         1 UNK         0.0837 
    105 H105      -74.4379   22.6590  -79.5248 H         1 UNK         0.0837 
    106 H106      -76.5388   22.7016  -77.0452 H         1 UNK         0.3020 
    107 H107      -74.5958   21.4015  -75.0081 H         1 UNK         0.1245 
    108 H108      -73.7769   23.3161  -73.5187 H         1 UNK         0.0781 
    109 H109      -74.7983   22.1451  -72.7554 H         1 UNK         0.0781 
    110 H110      -74.5624   25.6380  -74.2980 H         1 UNK         0.0836 
    111 H111      -74.2306   25.8425  -72.5974 H         1 UNK         0.0836 
    112 H112      -77.2234   22.6287  -74.4704 H         1 UNK         0.3022 
    113 H113      -79.0350   20.2514  -76.2672 H         1 UNK         0.0747 
    114 H114      -80.2790   19.9449  -74.1369 H         1 UNK         0.0793 
    115 H115      -78.7675   19.0522  -74.0841 H         1 UNK         0.0793 
    116 H116      -78.9136   20.5757  -73.2167 H         1 UNK         0.0793 
    117 H117      -79.8808   22.4244  -74.6208 H         1 UNK         0.3047 
    118 H118      -79.3548   25.0478  -76.9590 H         1 UNK         0.0822 
    119 H119      -81.8123   25.3138  -76.8357 H         1 UNK         0.0807 
    120 H120      -81.9870   23.6750  -76.2120 H         1 UNK         0.0807 
    121 H121      -81.3924   23.9385  -77.8448 H         1 UNK         0.0807 
    122 H122      -79.4471   25.9332  -74.9640 H         1 UNK         0.2946 
    123 H123      -81.3204   25.4219  -72.0724 H         1 UNK         0.1144 
    124 H124      -78.3001   25.8437  -72.2640 H         1 UNK         0.0793 
    125 H125      -79.0525   24.4744  -71.4582 H         1 UNK         0.0793 
    126 H126      -79.3180   26.1022  -70.8536 H         1 UNK         0.0793 
    127 H127      -79.8113   27.6761  -72.8617 H         1 UNK         0.2896 
@<TRIPOS>BOND
     1    1    2 1    
     2    1   67 1    
     3    1   68 1    
     4    1   69 1    
     5    2    3 2    
     6    2    4 am   BACKBONE|DICT|INTERRES
     7    4    5 1    
     8    4   70 1    
     9    5    6 1    
    10    5   65 1    
    11    5   71 1    
    12    6    7 1    
    13    6   72 1    
    14    6   73 1    
    15    7    8 1    
    16    8    9 1    
    17    8   74 1    
    18    8   75 1    
    19    9   10 ar   
    20    9   14 ar   
    21   10   11 ar   
    22   10   76 1    
    23   11   12 ar   
    24   11   48 1    
    25   12   13 ar   
    26   12   77 1    
    27   13   14 ar   
    28   13   15 1    
    29   14   78 1    
    30   15   16 1    
    31   15   79 1    
    32   15   80 1    
    33   16   17 1    
    34   17   18 1    
    35   17   81 1    
    36   17   82 1    
    37   18   19 1    
    38   18   22 1    
    39   18   83 1    
    40   19   20 am   BACKBONE|DICT|INTERRES
    41   19   21 2    
    42   20   84 1    
    43   20   85 1    
    44   22   23 am   BACKBONE|DICT|INTERRES
    45   22   86 1    
    46   23   24 2    
    47   23   25 1    
    48   25   26 1    
    49   25   27 1    
    50   25   87 1    
    51   26   88 1    
    52   26   89 1    
    53   26   90 1    
    54   27   28 am   BACKBONE|DICT|INTERRES
    55   27   91 1    
    56   28   29 2    
    57   28   30 1    
    58   30   31 1    
    59   30   32 1    
    60   30   92 1    
    61   31   93 1    
    62   31   94 1    
    63   31   95 1    
    64   32   33 am   BACKBONE|DICT|INTERRES
    65   32   96 1    
    66   33   34 2    
    67   33   35 1    
    68   35   36 1    
    69   35   37 1    
    70   35   97 1    
    71   36   98 1    
    72   36   99 1    
    73   36  100 1    
    74   37   38 am   BACKBONE|DICT|INTERRES
    75   37  101 1    
    76   38   39 2    
    77   38   40 1    
    78   40   41 1    
    79   40   42 1    
    80   40  102 1    
    81   41  103 1    
    82   41  104 1    
    83   41  105 1    
    84   42   43 am   BACKBONE|DICT|INTERRES
    85   42  106 1    
    86   43   44 2    
    87   43   45 1    
    88   45   46 1    
    89   45   49 1    
    90   45  107 1    
    91   46   47 1    
    92   46  108 1    
    93   46  109 1    
    94   47   48 1    
    95   48  110 1    
    96   48  111 1    
    97   49   50 am   BACKBONE|DICT|INTERRES
    98   49  112 1    
    99   50   51 2    
   100   50   52 1    
   101   52   53 1    
   102   52   54 1    
   103   52  113 1    
   104   53  114 1    
   105   53  115 1    
   106   53  116 1    
   107   54   55 am   BACKBONE|DICT|INTERRES
   108   54  117 1    
   109   55   56 2    
   110   55   57 1    
   111   57   58 1    
   112   57   59 1    
   113   57  118 1    
   114   58  119 1    
   115   58  120 1    
   116   58  121 1    
   117   59   60 am   BACKBONE|DICT|INTERRES
   118   59  122 1    
   119   60   61 2    
   120   60   62 1    
   121   62   63 1    
   122   62   64 1    
   123   62  123 1    
   124   63  124 1    
   125   63  125 1    
   126   63  126 1    
   127   64   65 am   BACKBONE|DICT|INTERRES
   128   64  127 1    
   129   65   66 2    
@<TRIPOS>SUBSTRUCTURE
     1 UNK         1 GROUP             0       ****    0 ROOT    
