@<TRIPOS>MOLECULE
3R135
127   129    1
SMALL
USER_CHARGES


@<TRIPOS>ATOM
      1 CA        -83.2940   25.2082  -71.3080 C.3       0 UNK        -0.1998 
      2 C         -83.3905   25.7238  -72.7358 C.2       0 UNK         0.4909 
      3 O         -83.7721   24.9731  -73.6344 O.2       0 UNK        -0.5240 
      4 N         -83.0529   27.0014  -72.9500 N.am      1 UNK        -0.4739 
      5 CA        -82.9642   27.6473  -74.2632 C.3       1 UNK         0.0864 
      6 C6        -82.8361   29.1961  -74.1572 C.3       11 UNK        -0.0881 
      7 S7        -81.7548   29.8050  -72.8088 S.3       11 UNK        -0.2682 
      8 C8        -80.1564   30.0354  -73.6565 C.3       11 UNK         0.0289 
      9 C9        -78.9807   29.7064  -72.7419 C.ar      11 UNK        -0.0687 
     10 C10       -78.8953   28.4550  -72.1211 C.ar      11 UNK        -0.0823 
     11 C11       -77.8363   28.1546  -71.2593 C.ar      11 UNK        -0.0830 
     12 C12       -76.8388   29.1079  -71.0391 C.ar      11 UNK        -0.1021 
     13 C13       -76.8988   30.3542  -71.6701 C.ar      11 UNK        -0.0753 
     14 C14       -77.9722   30.6486  -72.5178 C.ar      11 UNK        -0.0933 
     15 C15       -75.8198   31.3961  -71.4169 C.3       11 UNK         0.0166 
     16 S16       -74.4721   31.2776  -72.6321 S.3       11 UNK        -0.2615 
     17 C17       -73.5532   29.8276  -72.0091 C.3       11 UNK        -0.0865 
     18 CA        -72.1630   29.6797  -72.6836 C.3       10 UNK         0.0862 
     19 C         -71.2894   28.5815  -72.0081 C.2       10 UNK         0.5551 
     20 N         -70.5415   27.7718  -72.7502 N.am      10 UNK        -0.7319 
     21 O         -71.2713   28.4705  -70.7847 O.2       10 UNK        -0.5018 
     22 N         -72.3000   29.4739  -74.1318 N.am      10 UNK        -0.4509 
     23 C         -71.6646   30.1644  -75.0835 C.2       10 UNK         0.4899 
     24 O         -70.9080   31.1110  -74.8592 O.2       10 UNK        -0.4839 
     25 CA        -71.9169   29.7047  -76.5331 C.3       9 UNK         0.0222 
     26 CB        -70.9123   30.3048  -77.5397 C.3       9 UNK        -0.1966 
     27 N         -71.9819   28.2439  -76.6754 N.am      9 UNK        -0.4218 
     28 C         -71.0250   27.3532  -76.3657 C.2       9 UNK         0.5020 
     29 O         -69.9404   27.6714  -75.8753 O.2       9 UNK        -0.5274 
     30 CA        -71.3096   25.8548  -76.6035 C.3       8 UNK         0.0270 
     31 CB        -71.0291   25.0386  -75.3289 C.3       8 UNK        -0.1976 
     32 N         -72.6747   25.5709  -77.0519 N.am      8 UNK        -0.4313 
     33 C         -73.1400   25.7322  -78.2976 C.2       8 UNK         0.5041 
     34 O         -72.4398   26.0711  -79.2518 O.2       8 UNK        -0.5577 
     35 CA        -74.6559   25.5428  -78.4973 C.3       7 UNK         0.0284 
     36 CB        -74.9922   24.0673  -78.7608 C.3       7 UNK        -0.1958 
     37 N         -75.4474   26.0392  -77.3647 N.am      7 UNK        -0.4454 
     38 C         -75.4743   27.3185  -76.9599 C.2       7 UNK         0.5089 
     39 O         -74.8683   28.2277  -77.5261 O.2       7 UNK        -0.5125 
     40 CA        -76.2598   27.6273  -75.6776 C.3       6 UNK         0.0408 
     41 CB        -77.7553   27.7790  -75.9760 C.3       6 UNK        -0.1791 
     42 N         -76.0649   26.5977  -74.6582 N.am      6 UNK        -0.4762 
     43 C         -74.9234   26.4125  -73.9830 C.2       6 UNK         0.5007 
     44 O         -73.9201   27.1097  -74.1362 O.2       6 UNK        -0.5032 
     45 CA        -74.8765   25.2166  -73.0114 C.3       5 UNK         0.0783 
     46 C46       -75.5129   25.5576  -71.6382 C.3       11 UNK        -0.0857 
     47 S47       -77.3393   25.4450  -71.6214 S.3       11 UNK        -0.2512 
     48 C48       -77.8065   26.8204  -70.5288 C.3       11 UNK         0.0225 
     49 N         -75.4446   23.9962  -73.5955 N.am      5 UNK        -0.4615 
     50 C         -74.9814   23.3658  -74.6813 C.2       4 UNK         0.5053 
     51 O         -73.9693   23.7086  -75.2880 O.2       4 UNK        -0.5105 
     52 CA        -75.8074   22.1775  -75.2072 C.3       4 UNK         0.0263 
     53 CB        -75.3586   20.8739  -74.5286 C.3       4 UNK        -0.1981 
     54 N         -77.2600   22.3332  -75.0569 N.am      4 UNK        -0.4224 
     55 C         -77.9863   23.3506  -75.5428 C.2       3 UNK         0.4895 
     56 O         -77.4954   24.2993  -76.1617 O.2       3 UNK        -0.5091 
     57 CA        -79.5012   23.2966  -75.2694 C.3       3 UNK         0.0250 
     58 CB        -79.8071   23.2045  -73.7627 C.3       3 UNK        -0.1996 
     59 N         -80.1609   24.4927  -75.7836 N.am      3 UNK        -0.4254 
     60 C         -80.6729   24.6643  -77.0044 C.2       2 UNK         0.5004 
     61 O         -80.7498   23.7631  -77.8422 O.2       2 UNK        -0.5226 
     62 CA        -81.1851   26.0868  -77.3382 C.3       2 UNK         0.0269 
     63 CB        -81.8384   26.1652  -78.7313 C.3       2 UNK        -0.1926 
     64 N         -82.1191   26.6493  -76.3506 N.am      2 UNK        -0.4687 
     65 C         -81.8241   27.0295  -75.0984 C.2       1 UNK         0.5165 
     66 O         -80.7038   26.9115  -74.5989 O.2       1 UNK        -0.5079 
     67 H67       -84.2663   24.8496  -70.9713 H         1 UNK         0.0900 
     68 H68       -82.9595   25.9822  -70.6173 H         1 UNK         0.0900 
     69 H69       -82.5876   24.3801  -71.2568 H         1 UNK         0.0900 
     70 H70       -82.7238   27.5698  -72.1819 H         1 UNK         0.2959 
     71 H71       -83.9006   27.4341  -74.7837 H         1 UNK         0.1079 
     72 H72       -82.5298   29.6392  -75.1072 H         1 UNK         0.0837 
     73 H73       -83.8270   29.6092  -73.9625 H         1 UNK         0.0837 
     74 H74       -80.0993   31.0662  -74.0091 H         1 UNK         0.0685 
     75 H75       -80.1008   29.4102  -74.5454 H         1 UNK         0.0685 
     76 H76       -79.6684   27.7187  -72.2954 H         1 UNK         0.1434 
     77 H77       -76.0206   28.8858  -70.3679 H         1 UNK         0.1329 
     78 H78       -78.0220   31.6158  -72.9991 H         1 UNK         0.1335 
     79 H79       -76.2535   32.3956  -71.4744 H         1 UNK         0.0680 
     80 H80       -75.4205   31.2992  -70.4061 H         1 UNK         0.0680 
     81 H81       -73.4436   29.9366  -70.9286 H         1 UNK         0.1032 
     82 H82       -74.1536   28.9314  -72.1695 H         1 UNK         0.1032 
     83 H83       -71.6223   30.6099  -72.5018 H         1 UNK         0.0461 
     84 H84       -69.9744   27.0741  -72.2963 H         1 UNK         0.3453 
     85 H85       -70.5040   27.8785  -73.7552 H         1 UNK         0.3453 
     86 H86       -72.8773   28.6774  -74.3906 H         1 UNK         0.2984 
     87 H87       -72.9072   30.0780  -76.7970 H         1 UNK         0.0554 
     88 H88       -71.1317   29.9837  -78.5579 H         1 UNK         0.0847 
     89 H89       -69.8866   30.0145  -77.3097 H         1 UNK         0.0847 
     90 H90       -70.9515   31.3947  -77.5298 H         1 UNK         0.0847 
     91 H91       -72.8616   27.8939  -77.0389 H         1 UNK         0.3141 
     92 H92       -70.6167   25.5197  -77.3780 H         1 UNK         0.0743 
     93 H93       -69.9980   25.1635  -74.9959 H         1 UNK         0.0784 
     94 H94       -71.6776   25.3444  -74.5068 H         1 UNK         0.0784 
     95 H95       -71.1837   23.9729  -75.4984 H         1 UNK         0.0784 
     96 H96       -73.3072   25.2001  -76.3470 H         1 UNK         0.3213 
     97 H97       -74.9483   26.1207  -79.3766 H         1 UNK         0.0855 
     98 H98       -74.6602   23.4272  -77.9444 H         1 UNK         0.0814 
     99 H99       -74.5004   23.7144  -79.6682 H         1 UNK         0.0814 
    100 H100      -76.0643   23.9182  -78.8920 H         1 UNK         0.0814 
    101 H101      -76.0169   25.3642  -76.8596 H         1 UNK         0.3105 
    102 H102      -75.8967   28.5760  -75.2754 H         1 UNK         0.0547 
    103 H103      -78.1759   26.8660  -76.3949 H         1 UNK         0.0837 
    104 H104      -78.3075   28.0138  -75.0682 H         1 UNK         0.0837 
    105 H105      -77.9354   28.5847  -76.6885 H         1 UNK         0.0837 
    106 H106      -76.8268   25.9505  -74.5083 H         1 UNK         0.3020 
    107 H107      -73.8162   25.0175  -72.8383 H         1 UNK         0.1245 
    108 H108      -75.1936   26.5441  -71.2965 H         1 UNK         0.0781 
    109 H109      -75.1418   24.8572  -70.8886 H         1 UNK         0.0781 
    110 H110      -77.1329   26.8551  -69.6711 H         1 UNK         0.0836 
    111 H111      -78.7987   26.6178  -70.1227 H         1 UNK         0.0836 
    112 H112      -76.2935   23.6604  -73.1645 H         1 UNK         0.3022 
    113 H113      -75.6047   22.0875  -76.2753 H         1 UNK         0.0747 
    114 H114      -75.8530   20.0066  -74.9666 H         1 UNK         0.0793 
    115 H115      -74.2841   20.7237  -74.6450 H         1 UNK         0.0793 
    116 H116      -75.5727   20.8796  -73.4590 H         1 UNK         0.0793 
    117 H117      -77.7390   21.5933  -74.5641 H         1 UNK         0.3047 
    118 H118      -79.9038   22.4130  -75.7688 H         1 UNK         0.0822 
    119 H119      -79.3879   22.3035  -73.3144 H         1 UNK         0.0807 
    120 H120      -80.8824   23.1767  -73.5834 H         1 UNK         0.0807 
    121 H121      -79.4081   24.0612  -73.2193 H         1 UNK         0.0807 
    122 H122      -80.1485   25.3115  -75.1785 H         1 UNK         0.2946 
    123 H123      -80.3040   26.7303  -77.3604 H         1 UNK         0.1144 
    124 H124      -81.1517   25.8231  -79.5069 H         1 UNK         0.0793 
    125 H125      -82.1187   27.1883  -78.9828 H         1 UNK         0.0793 
    126 H126      -82.7340   25.5456  -78.7915 H         1 UNK         0.0793 
    127 H127      -83.0747   26.7444  -76.6636 H         1 UNK         0.2896 
@<TRIPOS>BOND
     1    1    2 1    
     2    1   67 1    
     3    1   68 1    
     4    1   69 1    
     5    2    3 2    
     6    2    4 am   BACKBONE|DICT|INTERRES
     7    4    5 1    
     8    4   70 1    
     9    5    6 1    
    10    5   65 1    
    11    5   71 1    
    12    6    7 1    
    13    6   72 1    
    14    6   73 1    
    15    7    8 1    
    16    8    9 1    
    17    8   74 1    
    18    8   75 1    
    19    9   10 ar   
    20    9   14 ar   
    21   10   11 ar   
    22   10   76 1    
    23   11   12 ar   
    24   11   48 1    
    25   12   13 ar   
    26   12   77 1    
    27   13   14 ar   
    28   13   15 1    
    29   14   78 1    
    30   15   16 1    
    31   15   79 1    
    32   15   80 1    
    33   16   17 1    
    34   17   18 1    
    35   17   81 1    
    36   17   82 1    
    37   18   19 1    
    38   18   22 1    
    39   18   83 1    
    40   19   20 am   BACKBONE|DICT|INTERRES
    41   19   21 2    
    42   20   84 1    
    43   20   85 1    
    44   22   23 am   BACKBONE|DICT|INTERRES
    45   22   86 1    
    46   23   24 2    
    47   23   25 1    
    48   25   26 1    
    49   25   27 1    
    50   25   87 1    
    51   26   88 1    
    52   26   89 1    
    53   26   90 1    
    54   27   28 am   BACKBONE|DICT|INTERRES
    55   27   91 1    
    56   28   29 2    
    57   28   30 1    
    58   30   31 1    
    59   30   32 1    
    60   30   92 1    
    61   31   93 1    
    62   31   94 1    
    63   31   95 1    
    64   32   33 am   BACKBONE|DICT|INTERRES
    65   32   96 1    
    66   33   34 2    
    67   33   35 1    
    68   35   36 1    
    69   35   37 1    
    70   35   97 1    
    71   36   98 1    
    72   36   99 1    
    73   36  100 1    
    74   37   38 am   BACKBONE|DICT|INTERRES
    75   37  101 1    
    76   38   39 2    
    77   38   40 1    
    78   40   41 1    
    79   40   42 1    
    80   40  102 1    
    81   41  103 1    
    82   41  104 1    
    83   41  105 1    
    84   42   43 am   BACKBONE|DICT|INTERRES
    85   42  106 1    
    86   43   44 2    
    87   43   45 1    
    88   45   46 1    
    89   45   49 1    
    90   45  107 1    
    91   46   47 1    
    92   46  108 1    
    93   46  109 1    
    94   47   48 1    
    95   48  110 1    
    96   48  111 1    
    97   49   50 am   BACKBONE|DICT|INTERRES
    98   49  112 1    
    99   50   51 2    
   100   50   52 1    
   101   52   53 1    
   102   52   54 1    
   103   52  113 1    
   104   53  114 1    
   105   53  115 1    
   106   53  116 1    
   107   54   55 am   BACKBONE|DICT|INTERRES
   108   54  117 1    
   109   55   56 2    
   110   55   57 1    
   111   57   58 1    
   112   57   59 1    
   113   57  118 1    
   114   58  119 1    
   115   58  120 1    
   116   58  121 1    
   117   59   60 am   BACKBONE|DICT|INTERRES
   118   59  122 1    
   119   60   61 2    
   120   60   62 1    
   121   62   63 1    
   122   62   64 1    
   123   62  123 1    
   124   63  124 1    
   125   63  125 1    
   126   63  126 1    
   127   64   65 am   BACKBONE|DICT|INTERRES
   128   64  127 1    
   129   65   66 2    
@<TRIPOS>SUBSTRUCTURE
     1 UNK         1 GROUP             0       ****    0 ROOT    
