@<TRIPOS>MOLECULE
3R135
127   129    1
SMALL
USER_CHARGES


@<TRIPOS>ATOM
      1 CA        -84.7502   30.4337  -71.8332 C.3       0 UNK        -0.1998 
      2 C         -83.6133   29.5780  -72.3707 C.2       0 UNK         0.4909 
      3 O         -83.8632   28.6473  -73.1379 O.2       0 UNK        -0.5240 
      4 N         -82.3702   29.8959  -71.9803 N.am      1 UNK        -0.4739 
      5 CA        -81.1041   29.2325  -72.3367 C.3       1 UNK         0.0864 
      6 C6        -81.0396   27.7336  -71.9327 C.3       11 UNK        -0.0881 
      7 S7        -81.0193   27.5415  -70.1151 S.3       11 UNK        -0.2682 
      8 C8        -79.9594   26.0680  -69.8736 C.3       11 UNK         0.0289 
      9 C9        -78.4788   26.2057  -70.2475 C.ar      11 UNK        -0.0687 
     10 C10       -77.6495   25.0893  -70.0856 C.ar      11 UNK        -0.0823 
     11 C11       -76.2993   25.1355  -70.4492 C.ar      11 UNK        -0.0830 
     12 C12       -75.7747   26.3104  -70.9930 C.ar      11 UNK        -0.1021 
     13 C13       -76.5891   27.4299  -71.1686 C.ar      11 UNK        -0.0753 
     14 C14       -77.9257   27.3823  -70.7697 C.ar      11 UNK        -0.0933 
     15 C15       -76.0480   28.6807  -71.8348 C.3       11 UNK         0.0166 
     16 S16       -76.4447   28.6431  -73.6060 S.3       11 UNK        -0.2615 
     17 C17       -75.8786   30.2988  -74.1205 C.3       11 UNK        -0.0865 
     18 CA        -75.6807   30.4137  -75.6545 C.3       10 UNK         0.0862 
     19 C         -75.1971   31.8418  -76.0280 C.2       10 UNK         0.5551 
     20 N         -76.1056   32.7190  -76.4321 N.am      10 UNK        -0.7319 
     21 O         -74.0197   32.1726  -75.9035 O.2       10 UNK        -0.5018 
     22 N         -74.7998   29.3447  -76.1422 N.am      10 UNK        -0.4509 
     23 C         -74.4062   29.1221  -77.4017 C.2       10 UNK         0.4899 
     24 O         -74.7590   29.8049  -78.3637 O.2       10 UNK        -0.4839 
     25 CA        -73.5096   27.8872  -77.6348 C.3       9 UNK         0.0222 
     26 CB        -72.4398   28.1294  -78.7198 C.3       9 UNK        -0.1966 
     27 N         -72.9120   27.3359  -76.4092 N.am      9 UNK        -0.4218 
     28 C         -72.0028   27.9118  -75.6046 C.2       9 UNK         0.5020 
     29 O         -71.5094   29.0234  -75.7935 O.2       9 UNK        -0.5274 
     30 CA        -71.5824   27.1056  -74.3673 C.3       8 UNK         0.0270 
     31 CB        -72.6498   27.2057  -73.2630 C.3       8 UNK        -0.1976 
     32 N         -71.3537   25.7026  -74.7140 N.am      8 UNK        -0.4313 
     33 C         -70.1935   25.2198  -75.1822 C.2       8 UNK         0.5041 
     34 O         -69.1586   25.8822  -75.2674 O.2       8 UNK        -0.5577 
     35 CA        -70.1797   23.7492  -75.6400 C.3       7 UNK         0.0284 
     36 CB        -69.7607   22.8290  -74.4818 C.3       7 UNK        -0.1958 
     37 N         -71.4701   23.3036  -76.1713 N.am      7 UNK        -0.4454 
     38 C         -72.0133   23.7332  -77.3197 C.2       7 UNK         0.5089 
     39 O         -71.4400   24.4792  -78.1127 O.2       7 UNK        -0.5125 
     40 CA        -73.4540   23.2785  -77.6205 C.3       6 UNK         0.0408 
     41 CB        -73.4479   22.0772  -78.5788 C.3       6 UNK        -0.1791 
     42 N         -74.2409   22.9439  -76.4253 N.am      6 UNK        -0.4762 
     43 C         -74.5709   23.8126  -75.4591 C.2       6 UNK         0.5007 
     44 O         -74.2118   24.9931  -75.4519 O.2       6 UNK        -0.5032 
     45 CA        -75.4174   23.2788  -74.2966 C.3       5 UNK         0.0783 
     46 C46       -74.6781   23.4497  -72.9473 C.3       11 UNK        -0.0857 
     47 S47       -75.5977   22.6861  -71.5679 S.3       11 UNK        -0.2512 
     48 C48       -75.4067   23.9200  -70.2420 C.3       11 UNK         0.0225 
     49 N         -76.6863   24.0000  -74.3362 N.am      5 UNK        -0.4615 
     50 C         -77.8623   23.4479  -74.6548 C.2       4 UNK         0.5053 
     51 O         -78.0244   22.2457  -74.8676 O.2       4 UNK        -0.5105 
     52 CA        -79.0670   24.3957  -74.7768 C.3       4 UNK         0.0263 
     53 CB        -79.7870   24.5222  -73.4270 C.3       4 UNK        -0.1981 
     54 N         -78.7219   25.7309  -75.2747 N.am      4 UNK        -0.4224 
     55 C         -78.2682   25.9916  -76.5096 C.2       3 UNK         0.4895 
     56 O         -78.0481   25.1245  -77.3572 O.2       3 UNK        -0.5091 
     57 CA        -78.0462   27.4785  -76.8457 C.3       3 UNK         0.0250 
     58 CB        -77.7134   27.7213  -78.3331 C.3       3 UNK        -0.1996 
     59 N         -79.1621   28.3334  -76.4137 N.am      3 UNK        -0.4254 
     60 C         -80.4449   28.2576  -76.8024 C.2       2 UNK         0.5004 
     61 O         -80.8788   27.4127  -77.5876 O.2       2 UNK        -0.5226 
     62 CA        -81.4041   29.3030  -76.1971 C.3       2 UNK         0.0269 
     63 CB        -82.7918   29.2917  -76.8657 C.3       2 UNK        -0.1926 
     64 N         -81.5833   29.1286  -74.7537 N.am      2 UNK        -0.4687 
     65 C         -80.6967   29.4566  -73.8079 C.2       1 UNK         0.5165 
     66 O         -79.5947   29.9427  -74.0638 O.2       1 UNK        -0.5079 
     67 H67       -85.2862   30.9049  -72.6566 H         1 UNK         0.0900 
     68 H68       -85.4541   29.8143  -71.2782 H         1 UNK         0.0900 
     69 H69       -84.3919   31.2188  -71.1677 H         1 UNK         0.0900 
     70 H70       -82.2575   30.6902  -71.3653 H         1 UNK         0.2959 
     71 H71       -80.3406   29.7539  -71.7563 H         1 UNK         0.1079 
     72 H72       -80.1469   27.2669  -72.3489 H         1 UNK         0.0837 
     73 H73       -81.8804   27.1702  -72.3389 H         1 UNK         0.0837 
     74 H74       -80.0207   25.7861  -68.8216 H         1 UNK         0.0685 
     75 H75       -80.3923   25.2403  -70.4372 H         1 UNK         0.0685 
     76 H76       -78.0584   24.1732  -69.6809 H         1 UNK         0.1434 
     77 H77       -74.7364   26.3527  -71.2899 H         1 UNK         0.1329 
     78 H78       -78.5296   28.2658  -70.9069 H         1 UNK         0.1335 
     79 H79       -74.9683   28.7552  -71.6983 H         1 UNK         0.0680 
     80 H80       -76.4867   29.5695  -71.3784 H         1 UNK         0.0680 
     81 H81       -74.9474   30.5308  -73.5993 H         1 UNK         0.1032 
     82 H82       -76.6150   31.0281  -73.7765 H         1 UNK         0.1032 
     83 H83       -76.6492   30.2523  -76.1318 H         1 UNK         0.0461 
     84 H84       -75.8132   33.6560  -76.6615 H         1 UNK         0.3453 
     85 H85       -77.0760   32.4619  -76.5228 H         1 UNK         0.3453 
     86 H86       -74.4556   28.7199  -75.4300 H         1 UNK         0.2984 
     87 H87       -74.1755   27.1067  -78.0059 H         1 UNK         0.0554 
     88 H88       -72.9009   28.3788  -79.6761 H         1 UNK         0.0847 
     89 H89       -71.8290   27.2405  -78.8787 H         1 UNK         0.0847 
     90 H90       -71.7746   28.9524  -78.4576 H         1 UNK         0.0847 
     91 H91       -73.2974   26.4399  -76.1151 H         1 UNK         0.3141 
     92 H92       -70.6575   27.5379  -73.9788 H         1 UNK         0.0743 
     93 H93       -72.8005   28.2441  -72.9652 H         1 UNK         0.0784 
     94 H94       -73.6167   26.8186  -73.5857 H         1 UNK         0.0784 
     95 H95       -72.3488   26.6548  -72.3719 H         1 UNK         0.0784 
     96 H96       -72.1672   25.1022  -74.7264 H         1 UNK         0.3213 
     97 H97       -69.4368   23.6591  -76.4357 H         1 UNK         0.0855 
     98 H98       -70.4739   22.8631  -73.6572 H         1 UNK         0.0814 
     99 H99       -68.7888   23.1239  -74.0833 H         1 UNK         0.0814 
    100 H100      -69.6728   21.7928  -74.8091 H         1 UNK         0.0814 
    101 H101      -72.0048   22.6617  -75.6050 H         1 UNK         0.3105 
    102 H102      -73.9555   24.1097  -78.1212 H         1 UNK         0.0547 
    103 H103      -72.8928   22.3075  -79.4894 H         1 UNK         0.0837 
    104 H104      -74.4591   21.8039  -78.8808 H         1 UNK         0.0837 
    105 H105      -72.9819   21.2007  -78.1271 H         1 UNK         0.0837 
    106 H106      -74.5795   21.9934  -76.3659 H         1 UNK         0.3020 
    107 H107      -75.5799   22.2096  -74.4513 H         1 UNK         0.1245 
    108 H108      -74.5000   24.5047  -72.7388 H         1 UNK         0.0781 
    109 H109      -73.6945   22.9777  -72.9852 H         1 UNK         0.0781 
    110 H110      -74.3591   24.2158  -70.1660 H         1 UNK         0.0836 
    111 H111      -75.6551   23.4495  -69.2895 H         1 UNK         0.0836 
    112 H112      -76.6298   25.0003  -74.2110 H         1 UNK         0.3022 
    113 H113      -79.7619   23.9479  -75.4907 H         1 UNK         0.0747 
    114 H114      -80.0635   23.5415  -73.0372 H         1 UNK         0.0793 
    115 H115      -79.1498   24.9986  -72.6831 H         1 UNK         0.0793 
    116 H116      -80.7046   25.1031  -73.5173 H         1 UNK         0.0793 
    117 H117      -78.8657   26.5061  -74.6449 H         1 UNK         0.3047 
    118 H118      -77.1753   27.7841  -76.2685 H         1 UNK         0.0822 
    119 H119      -77.5195   28.7761  -78.5282 H         1 UNK         0.0807 
    120 H120      -78.5241   27.4014  -78.9885 H         1 UNK         0.0807 
    121 H121      -76.8200   27.1700  -78.6287 H         1 UNK         0.0807 
    122 H122      -78.9451   29.0226  -75.6987 H         1 UNK         0.2946 
    123 H123      -80.9603   30.2853  -76.3763 H         1 UNK         0.1144 
    124 H124      -83.3101   28.3456  -76.7039 H         1 UNK         0.0793 
    125 H125      -82.7091   29.4402  -77.9433 H         1 UNK         0.0793 
    126 H126      -83.4250   30.0899  -76.4777 H         1 UNK         0.0793 
    127 H127      -82.4765   28.7587  -74.4375 H         1 UNK         0.2896 
@<TRIPOS>BOND
     1    1    2 1    
     2    1   67 1    
     3    1   68 1    
     4    1   69 1    
     5    2    3 2    
     6    2    4 am   BACKBONE|DICT|INTERRES
     7    4    5 1    
     8    4   70 1    
     9    5    6 1    
    10    5   65 1    
    11    5   71 1    
    12    6    7 1    
    13    6   72 1    
    14    6   73 1    
    15    7    8 1    
    16    8    9 1    
    17    8   74 1    
    18    8   75 1    
    19    9   10 ar   
    20    9   14 ar   
    21   10   11 ar   
    22   10   76 1    
    23   11   12 ar   
    24   11   48 1    
    25   12   13 ar   
    26   12   77 1    
    27   13   14 ar   
    28   13   15 1    
    29   14   78 1    
    30   15   16 1    
    31   15   79 1    
    32   15   80 1    
    33   16   17 1    
    34   17   18 1    
    35   17   81 1    
    36   17   82 1    
    37   18   19 1    
    38   18   22 1    
    39   18   83 1    
    40   19   20 am   BACKBONE|DICT|INTERRES
    41   19   21 2    
    42   20   84 1    
    43   20   85 1    
    44   22   23 am   BACKBONE|DICT|INTERRES
    45   22   86 1    
    46   23   24 2    
    47   23   25 1    
    48   25   26 1    
    49   25   27 1    
    50   25   87 1    
    51   26   88 1    
    52   26   89 1    
    53   26   90 1    
    54   27   28 am   BACKBONE|DICT|INTERRES
    55   27   91 1    
    56   28   29 2    
    57   28   30 1    
    58   30   31 1    
    59   30   32 1    
    60   30   92 1    
    61   31   93 1    
    62   31   94 1    
    63   31   95 1    
    64   32   33 am   BACKBONE|DICT|INTERRES
    65   32   96 1    
    66   33   34 2    
    67   33   35 1    
    68   35   36 1    
    69   35   37 1    
    70   35   97 1    
    71   36   98 1    
    72   36   99 1    
    73   36  100 1    
    74   37   38 am   BACKBONE|DICT|INTERRES
    75   37  101 1    
    76   38   39 2    
    77   38   40 1    
    78   40   41 1    
    79   40   42 1    
    80   40  102 1    
    81   41  103 1    
    82   41  104 1    
    83   41  105 1    
    84   42   43 am   BACKBONE|DICT|INTERRES
    85   42  106 1    
    86   43   44 2    
    87   43   45 1    
    88   45   46 1    
    89   45   49 1    
    90   45  107 1    
    91   46   47 1    
    92   46  108 1    
    93   46  109 1    
    94   47   48 1    
    95   48  110 1    
    96   48  111 1    
    97   49   50 am   BACKBONE|DICT|INTERRES
    98   49  112 1    
    99   50   51 2    
   100   50   52 1    
   101   52   53 1    
   102   52   54 1    
   103   52  113 1    
   104   53  114 1    
   105   53  115 1    
   106   53  116 1    
   107   54   55 am   BACKBONE|DICT|INTERRES
   108   54  117 1    
   109   55   56 2    
   110   55   57 1    
   111   57   58 1    
   112   57   59 1    
   113   57  118 1    
   114   58  119 1    
   115   58  120 1    
   116   58  121 1    
   117   59   60 am   BACKBONE|DICT|INTERRES
   118   59  122 1    
   119   60   61 2    
   120   60   62 1    
   121   62   63 1    
   122   62   64 1    
   123   62  123 1    
   124   63  124 1    
   125   63  125 1    
   126   63  126 1    
   127   64   65 am   BACKBONE|DICT|INTERRES
   128   64  127 1    
   129   65   66 2    
@<TRIPOS>SUBSTRUCTURE
     1 UNK         1 GROUP             0       ****    0 ROOT    
