@<TRIPOS>MOLECULE
3R135
127   129    1
SMALL
USER_CHARGES


@<TRIPOS>ATOM
      1 CA        -78.2902   22.6805  -68.9644 C.3       0 UNK        -0.1998 
      2 C         -79.2663   23.5854  -69.7015 C.2       0 UNK         0.4909 
      3 O         -80.4768   23.4706  -69.5039 O.2       0 UNK        -0.5240 
      4 N         -78.7479   24.4908  -70.5402 N.am      1 UNK        -0.4739 
      5 CA        -79.5322   25.4083  -71.3751 C.3       1 UNK         0.0864 
      6 C6        -78.6553   26.5419  -71.9646 C.3       11 UNK        -0.0881 
      7 S7        -77.8282   27.5271  -70.6703 S.3       11 UNK        -0.2682 
      8 C8        -78.7591   29.0894  -70.7365 C.3       11 UNK         0.0289 
      9 C9        -78.4226   29.8935  -71.9837 C.ar      11 UNK        -0.0687 
     10 C10       -79.3333   29.9826  -73.0407 C.ar      11 UNK        -0.0823 
     11 C11       -79.0233   30.7280  -74.1823 C.ar      11 UNK        -0.0830 
     12 C12       -77.7940   31.3910  -74.2602 C.ar      11 UNK        -0.1021 
     13 C13       -76.8746   31.3038  -73.2115 C.ar      11 UNK        -0.0753 
     14 C14       -77.1973   30.5588  -72.0744 C.ar      11 UNK        -0.0933 
     15 C15       -75.5307   32.0070  -73.3027 C.3       11 UNK         0.0166 
     16 S16       -74.3072   30.9481  -74.1350 S.3       11 UNK        -0.2615 
     17 C17       -72.7903   31.3047  -73.1765 C.3       11 UNK        -0.0865 
     18 CA        -72.4350   30.1961  -72.1484 C.3       10 UNK         0.0862 
     19 C         -73.3587   30.2406  -70.8930 C.2       10 UNK         0.5551 
     20 N         -74.1217   29.1988  -70.5855 N.am      10 UNK        -0.7319 
     21 O         -73.3723   31.2409  -70.1801 O.2       10 UNK        -0.5018 
     22 N         -72.3093   28.8865  -72.8074 N.am      10 UNK        -0.4509 
     23 C         -71.7302   27.7977  -72.2860 C.2       10 UNK         0.4899 
     24 O         -71.1846   27.7643  -71.1832 O.2       10 UNK        -0.4839 
     25 CA        -71.7643   26.5300  -73.1524 C.3       9 UNK         0.0222 
     26 CB        -73.1086   25.8002  -72.9926 C.3       9 UNK        -0.1966 
     27 N         -71.5387   26.8260  -74.5679 N.am      9 UNK        -0.4218 
     28 C         -70.3489   27.0944  -75.1217 C.2       9 UNK         0.5020 
     29 O         -69.2931   27.1015  -74.4856 O.2       9 UNK        -0.5274 
     30 CA        -70.3340   27.3793  -76.6418 C.3       8 UNK         0.0270 
     31 CB        -68.9144   27.3326  -77.2392 C.3       8 UNK        -0.1976 
     32 N         -71.1990   26.4659  -77.4005 N.am      8 UNK        -0.4313 
     33 C         -72.5322   26.5542  -77.4693 C.2       8 UNK         0.5041 
     34 O         -73.1737   27.4429  -76.9050 O.2       8 UNK        -0.5577 
     35 CA        -73.2583   25.4281  -78.2162 C.3       7 UNK         0.0284 
     36 CB        -73.2976   24.1551  -77.3516 C.3       7 UNK        -0.1958 
     37 N         -74.6324   25.8343  -78.5026 N.am      7 UNK        -0.4454 
     38 C         -75.0938   26.2071  -79.7027 C.2       7 UNK         0.5089 
     39 O         -74.4067   26.2033  -80.7254 O.2       7 UNK        -0.5125 
     40 CA        -76.5700   26.6414  -79.8044 C.3       6 UNK         0.0408 
     41 CB        -77.3609   25.6620  -80.6878 C.3       6 UNK        -0.1791 
     42 N         -77.2391   26.7512  -78.5053 N.am      6 UNK        -0.4762 
     43 C         -77.1455   27.8115  -77.6859 C.2       6 UNK         0.5007 
     44 O         -76.4933   28.8189  -77.9614 O.2       6 UNK        -0.5032 
     45 CA        -77.8796   27.7187  -76.3233 C.3       5 UNK         0.0783 
     46 C46       -79.3188   28.2947  -76.4074 C.3       11 UNK        -0.0857 
     47 S47       -79.4099   30.0648  -76.8543 S.3       11 UNK        -0.2512 
     48 C48       -80.0245   30.8331  -75.3232 C.3       11 UNK         0.0225 
     49 N         -77.9075   26.3380  -75.8162 N.am      5 UNK        -0.4615 
     50 C         -76.8191   25.6021  -75.5354 C.2       4 UNK         0.5053 
     51 O         -75.6840   26.0700  -75.5046 O.2       4 UNK        -0.5105 
     52 CA        -76.9882   24.0834  -75.3288 C.3       4 UNK         0.0263 
     53 CB        -76.5503   23.6409  -73.9229 C.3       4 UNK        -0.1981 
     54 N         -78.3357   23.5851  -75.6228 N.am      4 UNK        -0.4224 
     55 C         -78.8495   23.5001  -76.8610 C.2       3 UNK         0.4895 
     56 O         -78.2255   23.8175  -77.8738 O.2       3 UNK        -0.5091 
     57 CA        -80.3129   23.0403  -77.0040 C.3       3 UNK         0.0250 
     58 CB        -80.3739   21.5320  -77.2922 C.3       3 UNK        -0.1996 
     59 N         -81.1570   23.3468  -75.8450 N.am      3 UNK        -0.4254 
     60 C         -81.3884   24.5751  -75.3605 C.2       2 UNK         0.5004 
     61 O         -80.9215   25.6009  -75.8560 O.2       2 UNK        -0.5226 
     62 CA        -82.2197   24.6877  -74.0679 C.3       2 UNK         0.0269 
     63 CB        -82.9457   23.3839  -73.6622 C.3       2 UNK        -0.1926 
     64 N         -81.3984   25.1860  -72.9555 N.am      2 UNK        -0.4687 
     65 C         -80.2541   24.6467  -72.5064 C.2       1 UNK         0.5165 
     66 O         -79.7485   23.6227  -72.9769 O.2       1 UNK        -0.5079 
     67 H67       -77.2548   22.8998  -69.2249 H         1 UNK         0.0900 
     68 H68       -78.4026   22.8048  -67.8877 H         1 UNK         0.0900 
     69 H69       -78.4877   21.6375  -69.2104 H         1 UNK         0.0900 
     70 H70       -77.7470   24.5447  -70.6582 H         1 UNK         0.2959 
     71 H71       -80.2962   25.8600  -70.7380 H         1 UNK         0.1079 
     72 H72       -77.8802   26.1408  -72.6173 H         1 UNK         0.0837 
     73 H73       -79.2541   27.1995  -72.5957 H         1 UNK         0.0837 
     74 H74       -79.8286   28.8806  -70.6789 H         1 UNK         0.0685 
     75 H75       -78.5156   29.6806  -69.8525 H         1 UNK         0.0685 
     76 H76       -80.2852   29.4740  -72.9728 H         1 UNK         0.1434 
     77 H77       -77.5485   31.9646  -75.1439 H         1 UNK         0.1329 
     78 H78       -76.4903   30.4877  -71.2599 H         1 UNK         0.1335 
     79 H79       -75.1897   32.2714  -72.3007 H         1 UNK         0.0680 
     80 H80       -75.6276   32.9451  -73.8511 H         1 UNK         0.0680 
     81 H81       -71.9707   31.4034  -73.8899 H         1 UNK         0.1032 
     82 H82       -72.8634   32.2817  -72.6949 H         1 UNK         0.1032 
     83 H83       -71.4403   30.4356  -71.7676 H         1 UNK         0.0461 
     84 H84       -74.1202   28.3789  -71.1687 H         1 UNK         0.3453 
     85 H85       -74.7031   29.2346  -69.7640 H         1 UNK         0.3453 
     86 H86       -72.7540   28.8150  -73.7112 H         1 UNK         0.2984 
     87 H87       -70.9724   25.8624  -72.8061 H         1 UNK         0.0554 
     88 H88       -73.2959   25.5486  -71.9478 H         1 UNK         0.0847 
     89 H89       -73.1207   24.8676  -73.5569 H         1 UNK         0.0847 
     90 H90       -73.9463   26.4078  -73.3382 H         1 UNK         0.0847 
     91 H91       -72.3541   26.8929  -75.1713 H         1 UNK         0.3141 
     92 H92       -70.7091   28.3970  -76.7706 H         1 UNK         0.0743 
     93 H93       -68.4588   26.3487  -77.1206 H         1 UNK         0.0784 
     94 H94       -68.9225   27.5741  -78.3023 H         1 UNK         0.0784 
     95 H95       -68.2595   28.0567  -76.7525 H         1 UNK         0.0784 
     96 H96       -70.7405   25.6843  -77.8476 H         1 UNK         0.3213 
     97 H97       -72.7176   25.2140  -79.1407 H         1 UNK         0.0855 
     98 H98       -73.7602   24.3382  -76.3808 H         1 UNK         0.0814 
     99 H99       -72.2934   23.7730  -77.1645 H         1 UNK         0.0814 
    100 H100      -73.8578   23.3596  -77.8432 H         1 UNK         0.0814 
    101 H101      -75.2143   25.9940  -77.6891 H         1 UNK         0.3105 
    102 H102      -76.5873   27.6185  -80.2915 H         1 UNK         0.0547 
    103 H103      -78.4020   25.9683  -80.7899 H         1 UNK         0.0837 
    104 H104      -76.9392   25.6141  -81.6926 H         1 UNK         0.0837 
    105 H105      -77.3459   24.6499  -80.2822 H         1 UNK         0.0837 
    106 H106      -77.7558   25.9342  -78.1983 H         1 UNK         0.3020 
    107 H107      -77.3097   28.3177  -75.6084 H         1 UNK         0.1245 
    108 H108      -79.8286   28.1475  -75.4541 H         1 UNK         0.0781 
    109 H109      -79.9045   27.7385  -77.1416 H         1 UNK         0.0781 
    110 H110      -80.9806   30.3814  -75.0538 H         1 UNK         0.0836 
    111 H111      -80.2302   31.8867  -75.5173 H         1 UNK         0.0836 
    112 H112      -78.8167   25.8888  -75.8169 H         1 UNK         0.3022 
    113 H113      -76.3058   23.6080  -76.0369 H         1 UNK         0.0747 
    114 H114      -77.1885   24.0501  -73.1438 H         1 UNK         0.0793 
    115 H115      -76.5679   22.5551  -73.8287 H         1 UNK         0.0793 
    116 H116      -75.5311   23.9654  -73.7105 H         1 UNK         0.0793 
    117 H117      -78.9216   23.3590  -74.8241 H         1 UNK         0.3047 
    118 H118      -80.7328   23.5701  -77.8617 H         1 UNK         0.0822 
    119 H119      -79.7741   21.2774  -78.1674 H         1 UNK         0.0807 
    120 H120      -81.3942   21.2068  -77.4963 H         1 UNK         0.0807 
    121 H121      -79.9939   20.9451  -76.4549 H         1 UNK         0.0807 
    122 H122      -81.5496   22.5597  -75.3492 H         1 UNK         0.2946 
    123 H123      -82.9813   25.4438  -74.2667 H         1 UNK         0.1144 
    124 H124      -83.5845   23.5508  -72.7948 H         1 UNK         0.0793 
    125 H125      -82.2527   22.5822  -73.4046 H         1 UNK         0.0793 
    126 H126      -83.5910   23.0242  -74.4650 H         1 UNK         0.0793 
    127 H127      -81.7215   26.0465  -72.5352 H         1 UNK         0.2896 
@<TRIPOS>BOND
     1    1    2 1    
     2    1   67 1    
     3    1   68 1    
     4    1   69 1    
     5    2    3 2    
     6    2    4 am   BACKBONE|DICT|INTERRES
     7    4    5 1    
     8    4   70 1    
     9    5    6 1    
    10    5   65 1    
    11    5   71 1    
    12    6    7 1    
    13    6   72 1    
    14    6   73 1    
    15    7    8 1    
    16    8    9 1    
    17    8   74 1    
    18    8   75 1    
    19    9   10 ar   
    20    9   14 ar   
    21   10   11 ar   
    22   10   76 1    
    23   11   12 ar   
    24   11   48 1    
    25   12   13 ar   
    26   12   77 1    
    27   13   14 ar   
    28   13   15 1    
    29   14   78 1    
    30   15   16 1    
    31   15   79 1    
    32   15   80 1    
    33   16   17 1    
    34   17   18 1    
    35   17   81 1    
    36   17   82 1    
    37   18   19 1    
    38   18   22 1    
    39   18   83 1    
    40   19   20 am   BACKBONE|DICT|INTERRES
    41   19   21 2    
    42   20   84 1    
    43   20   85 1    
    44   22   23 am   BACKBONE|DICT|INTERRES
    45   22   86 1    
    46   23   24 2    
    47   23   25 1    
    48   25   26 1    
    49   25   27 1    
    50   25   87 1    
    51   26   88 1    
    52   26   89 1    
    53   26   90 1    
    54   27   28 am   BACKBONE|DICT|INTERRES
    55   27   91 1    
    56   28   29 2    
    57   28   30 1    
    58   30   31 1    
    59   30   32 1    
    60   30   92 1    
    61   31   93 1    
    62   31   94 1    
    63   31   95 1    
    64   32   33 am   BACKBONE|DICT|INTERRES
    65   32   96 1    
    66   33   34 2    
    67   33   35 1    
    68   35   36 1    
    69   35   37 1    
    70   35   97 1    
    71   36   98 1    
    72   36   99 1    
    73   36  100 1    
    74   37   38 am   BACKBONE|DICT|INTERRES
    75   37  101 1    
    76   38   39 2    
    77   38   40 1    
    78   40   41 1    
    79   40   42 1    
    80   40  102 1    
    81   41  103 1    
    82   41  104 1    
    83   41  105 1    
    84   42   43 am   BACKBONE|DICT|INTERRES
    85   42  106 1    
    86   43   44 2    
    87   43   45 1    
    88   45   46 1    
    89   45   49 1    
    90   45  107 1    
    91   46   47 1    
    92   46  108 1    
    93   46  109 1    
    94   47   48 1    
    95   48  110 1    
    96   48  111 1    
    97   49   50 am   BACKBONE|DICT|INTERRES
    98   49  112 1    
    99   50   51 2    
   100   50   52 1    
   101   52   53 1    
   102   52   54 1    
   103   52  113 1    
   104   53  114 1    
   105   53  115 1    
   106   53  116 1    
   107   54   55 am   BACKBONE|DICT|INTERRES
   108   54  117 1    
   109   55   56 2    
   110   55   57 1    
   111   57   58 1    
   112   57   59 1    
   113   57  118 1    
   114   58  119 1    
   115   58  120 1    
   116   58  121 1    
   117   59   60 am   BACKBONE|DICT|INTERRES
   118   59  122 1    
   119   60   61 2    
   120   60   62 1    
   121   62   63 1    
   122   62   64 1    
   123   62  123 1    
   124   63  124 1    
   125   63  125 1    
   126   63  126 1    
   127   64   65 am   BACKBONE|DICT|INTERRES
   128   64  127 1    
   129   65   66 2    
@<TRIPOS>SUBSTRUCTURE
     1 UNK         1 GROUP             0       ****    0 ROOT    
