@<TRIPOS>MOLECULE
3R135
127   129    1
SMALL
USER_CHARGES


@<TRIPOS>ATOM
      1 CA        -80.8863   22.4692  -71.8029 C.3       0 UNK        -0.1998 
      2 C         -82.1326   23.0084  -71.1028 C.2       0 UNK         0.4909 
      3 O         -82.8153   22.2274  -70.4418 O.2       0 UNK        -0.5240 
      4 N         -82.4893   24.3012  -71.1769 N.am      1 UNK        -0.4739 
      5 CA        -81.9066   25.4329  -71.9167 C.3       1 UNK         0.0864 
      6 C6        -80.4070   25.7097  -71.6194 C.3       11 UNK        -0.0881 
      7 S7        -80.0807   26.2334  -69.9025 S.3       11 UNK        -0.2682 
      8 C8        -80.0199   28.0562  -70.0337 C.3       11 UNK         0.0289 
      9 C9        -79.0082   28.5458  -71.0641 C.ar      11 UNK        -0.0687 
     10 C10       -79.4498   29.0839  -72.2776 C.ar      11 UNK        -0.0823 
     11 C11       -78.5424   29.4892  -73.2609 C.ar      11 UNK        -0.0830 
     12 C12       -77.1701   29.3647  -73.0019 C.ar      11 UNK        -0.1021 
     13 C13       -76.7127   28.8451  -71.7875 C.ar      11 UNK        -0.0753 
     14 C14       -77.6362   28.4423  -70.8181 C.ar      11 UNK        -0.0933 
     15 C15       -75.2197   28.6858  -71.5474 C.3       11 UNK         0.0166 
     16 S16       -74.4432   30.2785  -71.1397 S.3       11 UNK        -0.2615 
     17 C17       -72.6972   29.7822  -70.9408 C.3       11 UNK        -0.0865 
     18 CA        -71.8008   30.2298  -72.1266 C.3       10 UNK         0.0862 
     19 C         -70.2947   29.9864  -71.8058 C.2       10 UNK         0.5551 
     20 N         -69.5681   29.1595  -72.5497 N.am      10 UNK        -0.7319 
     21 O         -69.7727   30.5685  -70.8582 O.2       10 UNK        -0.5018 
     22 N         -72.2540   29.6457  -73.3982 N.am      10 UNK        -0.4509 
     23 C         -71.9345   30.1009  -74.6163 C.2       10 UNK         0.4899 
     24 O         -71.3062   31.1418  -74.8150 O.2       10 UNK        -0.4839 
     25 CA        -72.3895   29.2325  -75.8081 C.3       9 UNK         0.0222 
     26 CB        -71.5478   29.4706  -77.0790 C.3       9 UNK        -0.1966 
     27 N         -72.4569   27.7975  -75.4933 N.am      9 UNK        -0.4218 
     28 C         -71.4552   27.0121  -75.0666 C.2       9 UNK         0.5020 
     29 O         -70.3046   27.4083  -74.8766 O.2       9 UNK        -0.5274 
     30 CA        -71.7969   25.5487  -74.7593 C.3       8 UNK         0.0270 
     31 CB        -72.3520   25.4210  -73.3292 C.3       8 UNK        -0.1976 
     32 N         -72.7675   24.9982  -75.7114 N.am      8 UNK        -0.4313 
     33 C         -72.5084   23.9992  -76.5651 C.2       8 UNK         0.5041 
     34 O         -71.4099   23.4503  -76.6671 O.2       8 UNK        -0.5577 
     35 CA        -73.6670   23.4977  -77.4432 C.3       7 UNK         0.0284 
     36 CB        -74.5175   22.4678  -76.6818 C.3       7 UNK        -0.1958 
     37 N         -74.5329   24.5570  -77.9658 N.am      7 UNK        -0.4454 
     38 C         -74.1827   25.3993  -78.9489 C.2       7 UNK         0.5089 
     39 O         -73.0558   25.4500  -79.4419 O.2       7 UNK        -0.5125 
     40 CA        -75.2828   26.3240  -79.4922 C.3       6 UNK         0.0408 
     41 CB        -76.2519   25.5450  -80.3972 C.3       6 UNK        -0.1791 
     42 N         -76.0271   26.9514  -78.4015 N.am      6 UNK        -0.4762 
     43 C         -75.7303   28.1514  -77.8823 C.2       6 UNK         0.5007 
     44 O         -74.8652   28.8960  -78.3431 O.2       6 UNK        -0.5032 
     45 CA        -76.5021   28.6008  -76.6218 C.3       5 UNK         0.0783 
     46 C46       -77.6253   29.6077  -76.9793 C.3       11 UNK        -0.0857 
     47 S47       -77.8944   30.8544  -75.6754 S.3       11 UNK        -0.2512 
     48 C48       -79.1039   30.0397  -74.5757 C.3       11 UNK         0.0225 
     49 N         -77.0024   27.4616  -75.8398 N.am      5 UNK        -0.4615 
     50 C         -76.2061   26.6020  -75.1869 C.2       4 UNK         0.5053 
     51 O         -74.9834   26.7241  -75.1367 O.2       4 UNK        -0.5105 
     52 CA        -76.8441   25.3650  -74.5329 C.3       4 UNK         0.0263 
     53 CB        -77.0562   25.5917  -73.0321 C.3       4 UNK        -0.1981 
     54 N         -78.0994   24.9385  -75.1548 N.am      4 UNK        -0.4224 
     55 C         -78.2200   24.5208  -76.4228 C.2       3 UNK         0.4895 
     56 O         -77.2741   24.4520  -77.2086 O.2       3 UNK        -0.5091 
     57 CA        -79.6328   24.1571  -76.9090 C.3       3 UNK         0.0250 
     58 CB        -79.8810   22.6502  -76.7402 C.3       3 UNK        -0.1996 
     59 N         -80.7089   24.9026  -76.2454 N.am      3 UNK        -0.4254 
     60 C         -80.8668   26.2330  -76.2695 C.2       2 UNK         0.5004 
     61 O         -80.0731   27.0055  -76.8062 O.2       2 UNK        -0.5226 
     62 CA        -82.0890   26.8032  -75.5311 C.3       2 UNK         0.0269 
     63 CB        -83.4168   26.3583  -76.1780 C.3       2 UNK        -0.1926 
     64 N         -82.0564   26.5421  -74.0846 N.am      2 UNK        -0.4687 
     65 C         -82.1653   25.3707  -73.4382 C.2       1 UNK         0.5165 
     66 O         -82.4063   24.2997  -73.9991 O.2       1 UNK        -0.5079 
     67 H67       -80.0169   22.5782  -71.1554 H         1 UNK         0.0900 
     68 H68       -81.0091   21.4070  -72.0135 H         1 UNK         0.0900 
     69 H69       -80.6801   22.9565  -72.7520 H         1 UNK         0.0900 
     70 H70       -83.3328   24.5526  -70.6808 H         1 UNK         0.2959 
     71 H71       -82.4693   26.3005  -71.5670 H         1 UNK         0.1079 
     72 H72       -79.7857   24.8410  -71.8207 H         1 UNK         0.0837 
     73 H73       -80.0220   26.4706  -72.2936 H         1 UNK         0.0837 
     74 H74       -81.0193   28.4259  -70.2681 H         1 UNK         0.0685 
     75 H75       -79.7655   28.4702  -69.0570 H         1 UNK         0.0685 
     76 H76       -80.5108   29.1746  -72.4647 H         1 UNK         0.1434 
     77 H77       -76.4397   29.6634  -73.7384 H         1 UNK         0.1329 
     78 H78       -77.2911   28.0241  -69.8824 H         1 UNK         0.1335 
     79 H79       -74.7527   28.2672  -72.4401 H         1 UNK         0.0680 
     80 H80       -75.0371   27.9759  -70.7391 H         1 UNK         0.0680 
     81 H81       -72.6279   28.7030  -70.7920 H         1 UNK         0.1032 
     82 H82       -72.3449   30.2317  -70.0102 H         1 UNK         0.1032 
     83 H83       -71.9063   31.3126  -72.2183 H         1 UNK         0.0461 
     84 H84       -69.9653   28.6750  -73.3472 H         1 UNK         0.3453 
     85 H85       -68.5964   29.0243  -72.3212 H         1 UNK         0.3453 
     86 H86       -72.7678   28.7816  -73.3326 H         1 UNK         0.2984 
     87 H87       -73.4099   29.5445  -76.0286 H         1 UNK         0.0554 
     88 H88       -71.6030   30.5124  -77.3968 H         1 UNK         0.0847 
     89 H89       -71.9078   28.8626  -77.9093 H         1 UNK         0.0847 
     90 H90       -70.4956   29.2335  -76.9189 H         1 UNK         0.0847 
     91 H91       -73.3913   27.3918  -75.5172 H         1 UNK         0.3141 
     92 H92       -70.8603   24.9889  -74.8012 H         1 UNK         0.0743 
     93 H93       -73.2914   25.9598  -73.2023 H         1 UNK         0.0784 
     94 H94       -72.5302   24.3776  -73.0690 H         1 UNK         0.0784 
     95 H95       -71.6458   25.8196  -72.5993 H         1 UNK         0.0784 
     96 H96       -73.6935   25.4139  -75.7020 H         1 UNK         0.3213 
     97 H97       -73.2224   22.9857  -78.2998 H         1 UNK         0.0855 
     98 H98       -74.9976   22.9033  -75.8066 H         1 UNK         0.0814 
     99 H99       -73.9030   21.6359  -76.3348 H         1 UNK         0.0814 
    100 H100      -75.2985   22.0499  -77.3176 H         1 UNK         0.0814 
    101 H101      -75.5015   24.5531  -77.6517 H         1 UNK         0.3105 
    102 H102      -74.8047   27.0896  -80.1072 H         1 UNK         0.0547 
    103 H103      -77.0044   26.2046  -80.8294 H         1 UNK         0.0837 
    104 H104      -76.7727   24.7535  -79.8575 H         1 UNK         0.0837 
    105 H105      -75.7184   25.0768  -81.2255 H         1 UNK         0.0837 
    106 H106      -76.7297   26.3808  -77.9465 H         1 UNK         0.3020 
    107 H107      -75.7638   29.1196  -76.0074 H         1 UNK         0.1245 
    108 H108      -78.5588   29.1009  -77.2253 H         1 UNK         0.0781 
    109 H109      -77.3680   30.1800  -77.8734 H         1 UNK         0.0781 
    110 H110      -79.6083   29.2349  -75.1112 H         1 UNK         0.0836 
    111 H111      -79.8741   30.7761  -74.3416 H         1 UNK         0.0836 
    112 H112      -77.9985   27.2872  -75.8793 H         1 UNK         0.3022 
    113 H113      -76.1320   24.5464  -74.6431 H         1 UNK         0.0747 
    114 H114      -77.4118   24.6885  -72.5367 H         1 UNK         0.0793 
    115 H115      -76.1234   25.8782  -72.5444 H         1 UNK         0.0793 
    116 H116      -77.7754   26.3878  -72.8495 H         1 UNK         0.0793 
    117 H117      -78.9305   24.9699  -74.5851 H         1 UNK         0.3047 
    118 H118      -79.6767   24.3960  -77.9737 H         1 UNK         0.0822 
    119 H119      -80.8350   22.3542  -77.1769 H         1 UNK         0.0807 
    120 H120      -79.8877   22.3567  -75.6895 H         1 UNK         0.0807 
    121 H121      -79.1042   22.0675  -77.2378 H         1 UNK         0.0807 
    122 H122      -81.3889   24.3658  -75.7153 H         1 UNK         0.2946 
    123 H123      -82.0321   27.8880  -75.6401 H         1 UNK         0.1144 
    124 H124      -83.5635   25.2790  -76.1355 H         1 UNK         0.0793 
    125 H125      -83.4490   26.6449  -77.2300 H         1 UNK         0.0793 
    126 H126      -84.2699   26.8292  -75.6896 H         1 UNK         0.0793 
    127 H127      -81.8663   27.3613  -73.5251 H         1 UNK         0.2896 
@<TRIPOS>BOND
     1    1    2 1    
     2    1   67 1    
     3    1   68 1    
     4    1   69 1    
     5    2    3 2    
     6    2    4 am   BACKBONE|DICT|INTERRES
     7    4    5 1    
     8    4   70 1    
     9    5    6 1    
    10    5   65 1    
    11    5   71 1    
    12    6    7 1    
    13    6   72 1    
    14    6   73 1    
    15    7    8 1    
    16    8    9 1    
    17    8   74 1    
    18    8   75 1    
    19    9   10 ar   
    20    9   14 ar   
    21   10   11 ar   
    22   10   76 1    
    23   11   12 ar   
    24   11   48 1    
    25   12   13 ar   
    26   12   77 1    
    27   13   14 ar   
    28   13   15 1    
    29   14   78 1    
    30   15   16 1    
    31   15   79 1    
    32   15   80 1    
    33   16   17 1    
    34   17   18 1    
    35   17   81 1    
    36   17   82 1    
    37   18   19 1    
    38   18   22 1    
    39   18   83 1    
    40   19   20 am   BACKBONE|DICT|INTERRES
    41   19   21 2    
    42   20   84 1    
    43   20   85 1    
    44   22   23 am   BACKBONE|DICT|INTERRES
    45   22   86 1    
    46   23   24 2    
    47   23   25 1    
    48   25   26 1    
    49   25   27 1    
    50   25   87 1    
    51   26   88 1    
    52   26   89 1    
    53   26   90 1    
    54   27   28 am   BACKBONE|DICT|INTERRES
    55   27   91 1    
    56   28   29 2    
    57   28   30 1    
    58   30   31 1    
    59   30   32 1    
    60   30   92 1    
    61   31   93 1    
    62   31   94 1    
    63   31   95 1    
    64   32   33 am   BACKBONE|DICT|INTERRES
    65   32   96 1    
    66   33   34 2    
    67   33   35 1    
    68   35   36 1    
    69   35   37 1    
    70   35   97 1    
    71   36   98 1    
    72   36   99 1    
    73   36  100 1    
    74   37   38 am   BACKBONE|DICT|INTERRES
    75   37  101 1    
    76   38   39 2    
    77   38   40 1    
    78   40   41 1    
    79   40   42 1    
    80   40  102 1    
    81   41  103 1    
    82   41  104 1    
    83   41  105 1    
    84   42   43 am   BACKBONE|DICT|INTERRES
    85   42  106 1    
    86   43   44 2    
    87   43   45 1    
    88   45   46 1    
    89   45   49 1    
    90   45  107 1    
    91   46   47 1    
    92   46  108 1    
    93   46  109 1    
    94   47   48 1    
    95   48  110 1    
    96   48  111 1    
    97   49   50 am   BACKBONE|DICT|INTERRES
    98   49  112 1    
    99   50   51 2    
   100   50   52 1    
   101   52   53 1    
   102   52   54 1    
   103   52  113 1    
   104   53  114 1    
   105   53  115 1    
   106   53  116 1    
   107   54   55 am   BACKBONE|DICT|INTERRES
   108   54  117 1    
   109   55   56 2    
   110   55   57 1    
   111   57   58 1    
   112   57   59 1    
   113   57  118 1    
   114   58  119 1    
   115   58  120 1    
   116   58  121 1    
   117   59   60 am   BACKBONE|DICT|INTERRES
   118   59  122 1    
   119   60   61 2    
   120   60   62 1    
   121   62   63 1    
   122   62   64 1    
   123   62  123 1    
   124   63  124 1    
   125   63  125 1    
   126   63  126 1    
   127   64   65 am   BACKBONE|DICT|INTERRES
   128   64  127 1    
   129   65   66 2    
@<TRIPOS>SUBSTRUCTURE
     1 UNK         1 GROUP             0       ****    0 ROOT    
