@<TRIPOS>MOLECULE
3R135
127   129    1
SMALL
USER_CHARGES


@<TRIPOS>ATOM
      1 CA        -82.8187   28.6571  -73.5156 C.3       0 UNK        -0.1998 
      2 C         -81.5993   27.8572  -73.9468 C.2       0 UNK         0.4909 
      3 O         -80.8129   28.3338  -74.7655 O.2       0 UNK        -0.5240 
      4 N         -81.4323   26.6489  -73.3998 N.am      1 UNK        -0.4739 
      5 CA        -80.3299   25.7409  -73.7112 C.3       1 UNK         0.0864 
      6 C6        -78.9842   26.1400  -73.0447 C.3       11 UNK        -0.0881 
      7 S7        -78.9592   25.9991  -71.2248 S.3       11 UNK        -0.2682 
      8 C8        -79.3990   27.6878  -70.7075 C.3       11 UNK         0.0289 
      9 C9        -78.3080   28.7000  -71.0253 C.ar      11 UNK        -0.0687 
     10 C10       -78.4923   29.6502  -72.0359 C.ar      11 UNK        -0.0823 
     11 C11       -77.5138   30.6179  -72.2813 C.ar      11 UNK        -0.0830 
     12 C12       -76.3530   30.6353  -71.5040 C.ar      11 UNK        -0.1021 
     13 C13       -76.1371   29.6648  -70.5230 C.ar      11 UNK        -0.0753 
     14 C14       -77.1230   28.7035  -70.2834 C.ar      11 UNK        -0.0933 
     15 C15       -74.8479   29.6590  -69.7145 C.3       11 UNK         0.0166 
     16 S16       -73.4529   28.9731  -70.6677 S.3       11 UNK        -0.2615 
     17 C17       -72.8285   30.4442  -71.5571 C.3       11 UNK        -0.0865 
     18 CA        -73.1334   30.4308  -73.0853 C.3       10 UNK         0.0862 
     19 C         -72.8004   31.7872  -73.7778 C.2       10 UNK         0.5551 
     20 N         -72.3689   31.8004  -75.0335 N.am      10 UNK        -0.7319 
     21 O         -72.9606   32.8488  -73.1803 O.2       10 UNK        -0.5018 
     22 N         -72.6122   29.2472  -73.7869 N.am      10 UNK        -0.4509 
     23 C         -71.3324   28.8620  -73.8788 C.2       10 UNK         0.4899 
     24 O         -70.3936   29.4561  -73.3461 O.2       10 UNK        -0.4839 
     25 CA        -71.0549   27.6197  -74.7476 C.3       9 UNK         0.0222 
     26 CB        -69.7126   26.9322  -74.4172 C.3       9 UNK        -0.1966 
     27 N         -72.1661   26.6613  -74.7495 N.am      9 UNK        -0.4218 
     28 C         -72.6240   25.9227  -73.7255 C.2       9 UNK         0.5020 
     29 O         -72.1037   25.8962  -72.6096 O.2       9 UNK        -0.5274 
     30 CA        -73.8818   25.0638  -73.9760 C.3       8 UNK         0.0270 
     31 CB        -75.0728   25.5938  -73.1585 C.3       8 UNK        -0.1976 
     32 N         -74.2737   24.9843  -75.3867 N.am      8 UNK        -0.4313 
     33 C         -73.6221   24.2901  -76.3302 C.2       8 UNK         0.5041 
     34 O         -72.6702   23.5445  -76.0989 O.2       8 UNK        -0.5577 
     35 CA        -74.0762   24.5081  -77.7836 C.3       7 UNK         0.0284 
     36 CB        -75.2181   23.5491  -78.1535 C.3       7 UNK        -0.1958 
     37 N         -74.4842   25.8940  -78.0401 N.am      7 UNK        -0.4454 
     38 C         -73.6401   26.9351  -78.0901 C.2       7 UNK         0.5089 
     39 O         -72.4227   26.8353  -77.9442 O.2       7 UNK        -0.5125 
     40 CA        -74.2590   28.3283  -78.2992 C.3       6 UNK         0.0408 
     41 CB        -74.4545   28.6117  -79.7967 C.3       6 UNK        -0.1791 
     42 N         -75.5320   28.5062  -77.5960 N.am      6 UNK        -0.4762 
     43 C         -75.6701   28.5169  -76.2609 C.2       6 UNK         0.5007 
     44 O         -74.7293   28.3809  -75.4781 O.2       6 UNK        -0.5032 
     45 CA        -77.1139   28.6195  -75.7187 C.3       5 UNK         0.0783 
     46 C46       -77.6615   30.0708  -75.7334 C.3       11 UNK        -0.0857 
     47 S47       -76.6641   31.3021  -74.8244 S.3       11 UNK        -0.2512 
     48 C48       -77.7031   31.6602  -73.3717 C.3       11 UNK         0.0225 
     49 N         -78.0261   27.7304  -76.4528 N.am      5 UNK        -0.4615 
     50 C         -77.8924   26.4058  -76.5823 C.2       4 UNK         0.5053 
     51 O         -77.0060   25.7447  -76.0350 O.2       4 UNK        -0.5105 
     52 CA        -78.8833   25.7059  -77.5187 C.3       4 UNK         0.0263 
     53 CB        -78.4750   25.9202  -78.9901 C.3       4 UNK        -0.1981 
     54 N         -78.8871   24.2830  -77.1914 N.am      4 UNK        -0.4224 
     55 C         -79.7889   23.3753  -77.5920 C.2       3 UNK         0.4895 
     56 O         -80.7387   23.6291  -78.3325 O.2       3 UNK        -0.5091 
     57 CA        -79.6349   21.9572  -77.0241 C.3       3 UNK         0.0250 
     58 CB        -78.4414   21.2184  -77.6535 C.3       3 UNK        -0.1996 
     59 N         -79.4688   22.0456  -75.5758 N.am      3 UNK        -0.4254 
     60 C         -80.1950   21.3976  -74.6577 C.2       2 UNK         0.5004 
     61 O         -80.9715   20.4745  -74.9047 O.2       2 UNK        -0.5226 
     62 CA        -80.0566   21.9229  -73.2166 C.3       2 UNK         0.0269 
     63 CB        -78.8980   21.2226  -72.4885 C.3       2 UNK        -0.1926 
     64 N         -79.8449   23.3769  -73.1909 N.am      2 UNK        -0.4687 
     65 C         -80.7820   24.2802  -73.5178 C.2       1 UNK         0.5165 
     66 O         -81.9631   23.9849  -73.7150 O.2       1 UNK        -0.5079 
     67 H67       -83.4204   28.1198  -72.7827 H         1 UNK         0.0900 
     68 H68       -83.4478   28.8752  -74.3781 H         1 UNK         0.0900 
     69 H69       -82.5079   29.6025  -73.0720 H         1 UNK         0.0900 
     70 H70       -82.1313   26.2670  -72.7763 H         1 UNK         0.2959 
     71 H71       -80.1752   25.8088  -74.7889 H         1 UNK         0.1079 
     72 H72       -78.7252   27.1588  -73.3296 H         1 UNK         0.0837 
     73 H73       -78.1726   25.5324  -73.4443 H         1 UNK         0.0837 
     74 H74       -80.3448   27.9774  -71.1657 H         1 UNK         0.0685 
     75 H75       -79.5762   27.6850  -69.6311 H         1 UNK         0.0685 
     76 H76       -79.3999   29.6429  -72.6240 H         1 UNK         0.1434 
     77 H77       -75.6066   31.3966  -71.6809 H         1 UNK         0.1329 
     78 H78       -76.9740   27.9576  -69.5145 H         1 UNK         0.1335 
     79 H79       -74.9751   29.0540  -68.8155 H         1 UNK         0.0680 
     80 H80       -74.6166   30.6658  -69.3643 H         1 UNK         0.0680 
     81 H81       -73.2474   31.3377  -71.0926 H         1 UNK         0.1032 
     82 H82       -71.7538   30.5141  -71.3855 H         1 UNK         0.1032 
     83 H83       -74.2120   30.3385  -73.1974 H         1 UNK         0.0461 
     84 H84       -72.2533   30.9374  -75.5389 H         1 UNK         0.3453 
     85 H85       -72.1658   32.6814  -75.4781 H         1 UNK         0.3453 
     86 H86       -73.3134   28.7286  -74.3109 H         1 UNK         0.2984 
     87 H87       -70.9847   27.9867  -75.7723 H         1 UNK         0.0554 
     88 H88       -69.5489   26.0578  -75.0471 H         1 UNK         0.0847 
     89 H89       -69.6655   26.6113  -73.3763 H         1 UNK         0.0847 
     90 H90       -68.8754   27.6111  -74.5833 H         1 UNK         0.0847 
     91 H91       -72.6763   26.6048  -75.6211 H         1 UNK         0.3141 
     92 H92       -73.6537   24.0542  -73.6282 H         1 UNK         0.0743 
     93 H93       -75.9270   24.9224  -73.2344 H         1 UNK         0.0784 
     94 H94       -74.8209   25.6756  -72.1002 H         1 UNK         0.0784 
     95 H95       -75.3877   26.5829  -73.4927 H         1 UNK         0.0784 
     96 H96       -75.1008   25.5095  -75.6578 H         1 UNK         0.3213 
     97 H97       -73.2250   24.2832  -78.4306 H         1 UNK         0.0855 
     98 H98       -74.9144   22.5111  -78.0107 H         1 UNK         0.0814 
     99 H99       -75.5095   23.6592  -79.1981 H         1 UNK         0.0814 
    100 H100      -76.0998   23.7162  -77.5377 H         1 UNK         0.0814 
    101 H101      -75.4725   26.0740  -78.1270 H         1 UNK         0.3105 
    102 H102      -73.5554   29.0643  -77.9040 H         1 UNK         0.0547 
    103 H103      -73.5138   28.5054  -80.3390 H         1 UNK         0.0837 
    104 H104      -75.1708   27.9260  -80.2509 H         1 UNK         0.0837 
    105 H105      -74.8087   29.6288  -79.9654 H         1 UNK         0.0837 
    106 H106      -76.3578   28.6216  -78.1653 H         1 UNK         0.3020 
    107 H107      -77.0843   28.2798  -74.6813 H         1 UNK         0.1245 
    108 H108      -78.6763   30.0766  -75.3326 H         1 UNK         0.0781 
    109 H109      -77.7534   30.4254  -76.7615 H         1 UNK         0.0781 
    110 H110      -78.7506   31.7411  -73.6660 H         1 UNK         0.0836 
    111 H111      -77.4257   32.6397  -72.9794 H         1 UNK         0.0836 
    112 H112      -78.8102   28.1816  -76.9025 H         1 UNK         0.3022 
    113 H113      -79.8808   26.1153  -77.3448 H         1 UNK         0.0747 
    114 H114      -79.1967   25.4721  -79.6731 H         1 UNK         0.0793 
    115 H115      -78.4227   26.9810  -79.2381 H         1 UNK         0.0793 
    116 H116      -77.5003   25.4827  -79.2077 H         1 UNK         0.0793 
    117 H117      -78.1146   24.0148  -76.5958 H         1 UNK         0.3047 
    118 H118      -80.5482   21.4081  -77.2648 H         1 UNK         0.0822 
    119 H119      -77.4897   21.6852  -77.4012 H         1 UNK         0.0807 
    120 H120      -78.5216   21.2007  -78.7413 H         1 UNK         0.0807 
    121 H121      -78.4012   20.1829  -77.3151 H         1 UNK         0.0807 
    122 H122      -78.8768   22.7878  -75.2377 H         1 UNK         0.2946 
    123 H123      -80.9863   21.6961  -72.6890 H         1 UNK         0.1144 
    124 H124      -79.0427   20.1413  -72.4778 H         1 UNK         0.0793 
    125 H125      -77.9378   21.4180  -72.9676 H         1 UNK         0.0793 
    126 H126      -78.8280   21.5487  -71.4505 H         1 UNK         0.0793 
    127 H127      -78.9172   23.7010  -72.9569 H         1 UNK         0.2896 
@<TRIPOS>BOND
     1    1    2 1    
     2    1   67 1    
     3    1   68 1    
     4    1   69 1    
     5    2    3 2    
     6    2    4 am   BACKBONE|DICT|INTERRES
     7    4    5 1    
     8    4   70 1    
     9    5    6 1    
    10    5   65 1    
    11    5   71 1    
    12    6    7 1    
    13    6   72 1    
    14    6   73 1    
    15    7    8 1    
    16    8    9 1    
    17    8   74 1    
    18    8   75 1    
    19    9   10 ar   
    20    9   14 ar   
    21   10   11 ar   
    22   10   76 1    
    23   11   12 ar   
    24   11   48 1    
    25   12   13 ar   
    26   12   77 1    
    27   13   14 ar   
    28   13   15 1    
    29   14   78 1    
    30   15   16 1    
    31   15   79 1    
    32   15   80 1    
    33   16   17 1    
    34   17   18 1    
    35   17   81 1    
    36   17   82 1    
    37   18   19 1    
    38   18   22 1    
    39   18   83 1    
    40   19   20 am   BACKBONE|DICT|INTERRES
    41   19   21 2    
    42   20   84 1    
    43   20   85 1    
    44   22   23 am   BACKBONE|DICT|INTERRES
    45   22   86 1    
    46   23   24 2    
    47   23   25 1    
    48   25   26 1    
    49   25   27 1    
    50   25   87 1    
    51   26   88 1    
    52   26   89 1    
    53   26   90 1    
    54   27   28 am   BACKBONE|DICT|INTERRES
    55   27   91 1    
    56   28   29 2    
    57   28   30 1    
    58   30   31 1    
    59   30   32 1    
    60   30   92 1    
    61   31   93 1    
    62   31   94 1    
    63   31   95 1    
    64   32   33 am   BACKBONE|DICT|INTERRES
    65   32   96 1    
    66   33   34 2    
    67   33   35 1    
    68   35   36 1    
    69   35   37 1    
    70   35   97 1    
    71   36   98 1    
    72   36   99 1    
    73   36  100 1    
    74   37   38 am   BACKBONE|DICT|INTERRES
    75   37  101 1    
    76   38   39 2    
    77   38   40 1    
    78   40   41 1    
    79   40   42 1    
    80   40  102 1    
    81   41  103 1    
    82   41  104 1    
    83   41  105 1    
    84   42   43 am   BACKBONE|DICT|INTERRES
    85   42  106 1    
    86   43   44 2    
    87   43   45 1    
    88   45   46 1    
    89   45   49 1    
    90   45  107 1    
    91   46   47 1    
    92   46  108 1    
    93   46  109 1    
    94   47   48 1    
    95   48  110 1    
    96   48  111 1    
    97   49   50 am   BACKBONE|DICT|INTERRES
    98   49  112 1    
    99   50   51 2    
   100   50   52 1    
   101   52   53 1    
   102   52   54 1    
   103   52  113 1    
   104   53  114 1    
   105   53  115 1    
   106   53  116 1    
   107   54   55 am   BACKBONE|DICT|INTERRES
   108   54  117 1    
   109   55   56 2    
   110   55   57 1    
   111   57   58 1    
   112   57   59 1    
   113   57  118 1    
   114   58  119 1    
   115   58  120 1    
   116   58  121 1    
   117   59   60 am   BACKBONE|DICT|INTERRES
   118   59  122 1    
   119   60   61 2    
   120   60   62 1    
   121   62   63 1    
   122   62   64 1    
   123   62  123 1    
   124   63  124 1    
   125   63  125 1    
   126   63  126 1    
   127   64   65 am   BACKBONE|DICT|INTERRES
   128   64  127 1    
   129   65   66 2    
@<TRIPOS>SUBSTRUCTURE
     1 UNK         1 GROUP             0       ****    0 ROOT    
