@<TRIPOS>MOLECULE
3R135
127   129    1
SMALL
USER_CHARGES


@<TRIPOS>ATOM
      1 CA        -79.8926   29.3425  -70.9518 C.3       0 UNK        -0.1998 
      2 C         -80.9095   28.9795  -72.0217 C.2       0 UNK         0.4909 
      3 O         -82.0579   28.6733  -71.7000 O.2       0 UNK        -0.5240 
      4 N         -80.4957   29.0138  -73.2954 N.am      1 UNK        -0.4739 
      5 CA        -81.3340   28.6887  -74.4569 C.3       1 UNK         0.0864 
      6 C6        -80.8407   29.3953  -75.7456 C.3       11 UNK        -0.0881 
      7 S7        -79.2825   28.7582  -76.4592 S.3       11 UNK        -0.2682 
      8 C8        -78.0335   29.8665  -75.7207 C.3       11 UNK         0.0289 
      9 C9        -77.5059   29.4174  -74.3574 C.ar      11 UNK        -0.0687 
     10 C10       -77.4465   28.0661  -73.9924 C.ar      11 UNK        -0.0823 
     11 C11       -76.9282   27.6781  -72.7528 C.ar      11 UNK        -0.0830 
     12 C12       -76.4692   28.6561  -71.8667 C.ar      11 UNK        -0.1021 
     13 C13       -76.5143   30.0089  -72.2177 C.ar      11 UNK        -0.0753 
     14 C14       -77.0318   30.3804  -73.4621 C.ar      11 UNK        -0.0933 
     15 C15       -76.0355   31.0796  -71.2486 C.3       11 UNK         0.0166 
     16 S16       -74.2990   31.5373  -71.5442 S.3       11 UNK        -0.2615 
     17 C17       -73.4235   30.2766  -70.5555 C.3       11 UNK        -0.0865 
     18 CA        -72.0158   29.9443  -71.1097 C.3       10 UNK         0.0862 
     19 C         -71.2814   28.9672  -70.1492 C.2       10 UNK         0.5551 
     20 N         -70.4929   29.4882  -69.2192 N.am      10 UNK        -0.7319 
     21 O         -71.4591   27.7521  -70.2101 O.2       10 UNK        -0.5018 
     22 N         -72.0911   29.4489  -72.4915 N.am      10 UNK        -0.4509 
     23 C         -71.0448   29.1503  -73.2726 C.2       10 UNK         0.4899 
     24 O         -69.8679   29.2987  -72.9417 O.2       10 UNK        -0.4839 
     25 CA        -71.3641   28.6011  -74.6727 C.3       9 UNK         0.0222 
     26 CB        -71.4522   27.0667  -74.6357 C.3       9 UNK        -0.1966 
     27 N         -72.6043   29.1405  -75.2331 N.am      9 UNK        -0.4218 
     28 C         -72.7923   30.3970  -75.6543 C.2       9 UNK         0.5020 
     29 O         -71.9171   31.2647  -75.6324 O.2       9 UNK        -0.5274 
     30 CA        -74.1910   30.7161  -76.2229 C.3       8 UNK         0.0270 
     31 CB        -74.3654   32.2023  -76.5862 C.3       8 UNK        -0.1976 
     32 N         -74.5229   29.8925  -77.3932 N.am      8 UNK        -0.4313 
     33 C         -74.8558   28.5974  -77.3414 C.2       8 UNK         0.5041 
     34 O         -74.9046   27.9548  -76.2885 O.2       8 UNK        -0.5577 
     35 CA        -75.1649   27.8899  -78.6648 C.3       7 UNK         0.0284 
     36 CB        -73.8660   27.5958  -79.4406 C.3       7 UNK        -0.1958 
     37 N         -75.8438   26.6495  -78.3118 N.am      7 UNK        -0.4454 
     38 C         -76.4567   25.7767  -79.1145 C.2       7 UNK         0.5089 
     39 O         -76.5598   25.9306  -80.3323 O.2       7 UNK        -0.5125 
     40 CA        -77.0835   24.5325  -78.4449 C.3       6 UNK         0.0408 
     41 CB        -76.8963   23.2600  -79.2970 C.3       6 UNK        -0.1791 
     42 N         -76.6610   24.3085  -77.0516 N.am      6 UNK        -0.4762 
     43 C         -75.4267   24.0126  -76.6006 C.2       6 UNK         0.5007 
     44 O         -74.4490   23.8295  -77.3254 O.2       6 UNK        -0.5032 
     45 CA        -75.2612   23.9359  -75.0720 C.3       5 UNK         0.0783 
     46 C46       -75.2324   25.3676  -74.4846 C.3       11 UNK        -0.0857 
     47 S47       -75.2465   25.4565  -72.6640 S.3       11 UNK        -0.2512 
     48 C48       -76.8811   26.2053  -72.3623 C.3       11 UNK         0.0225 
     49 N         -76.3235   23.0925  -74.5202 N.am      5 UNK        -0.4615 
     50 C         -76.1689   21.7929  -74.2285 C.2       4 UNK         0.5053 
     51 O         -75.0874   21.2045  -74.2538 O.2       4 UNK        -0.5105 
     52 CA        -77.4412   20.9988  -73.8776 C.3       4 UNK         0.0263 
     53 CB        -77.7173   21.0663  -72.3667 C.3       4 UNK        -0.1981 
     54 N         -78.6191   21.4723  -74.6065 N.am      4 UNK        -0.4224 
     55 C         -78.7611   21.4592  -75.9407 C.2       3 UNK         0.4895 
     56 O         -77.9896   20.8757  -76.7017 O.2       3 UNK        -0.5091 
     57 CA        -79.9423   22.2531  -76.5341 C.3       3 UNK         0.0250 
     58 CB        -80.9777   21.3004  -77.1540 C.3       3 UNK        -0.1996 
     59 N         -80.6181   23.1366  -75.5753 N.am      3 UNK        -0.4254 
     60 C         -80.0817   24.2151  -74.9871 C.2       2 UNK         0.5004 
     61 O         -78.9267   24.6098  -75.1838 O.2       2 UNK        -0.5226 
     62 CA        -80.9549   24.8811  -73.9159 C.3       2 UNK         0.0269 
     63 CB        -80.5908   24.3446  -72.5210 C.3       2 UNK        -0.1926 
     64 N         -80.8025   26.3335  -73.9239 N.am      2 UNK        -0.4687 
     65 C         -81.5615   27.1704  -74.6462 C.2       1 UNK         0.5165 
     66 O         -82.4420   26.7882  -75.4201 O.2       1 UNK        -0.5079 
     67 H67       -80.3929   29.7157  -70.0584 H         1 UNK         0.0900 
     68 H68       -79.2147   30.1195  -71.3023 H         1 UNK         0.0900 
     69 H69       -79.3056   28.4672  -70.6745 H         1 UNK         0.0900 
     70 H70       -79.5332   29.2478  -73.5038 H         1 UNK         0.2959 
     71 H71       -82.3265   29.0967  -74.2508 H         1 UNK         0.1079 
     72 H72       -81.6059   29.3048  -76.5194 H         1 UNK         0.0837 
     73 H73       -80.7485   30.4679  -75.5671 H         1 UNK         0.0837 
     74 H74       -77.1922   29.9285  -76.4081 H         1 UNK         0.0685 
     75 H75       -78.4404   30.8771  -75.6581 H         1 UNK         0.0685 
     76 H76       -77.8007   27.3087  -74.6772 H         1 UNK         0.1434 
     77 H77       -76.0810   28.3598  -70.9023 H         1 UNK         0.1329 
     78 H78       -77.0602   31.4269  -73.7344 H         1 UNK         0.1335 
     79 H79       -76.1650   30.7515  -70.2159 H         1 UNK         0.0680 
     80 H80       -76.6532   31.9722  -71.3588 H         1 UNK         0.0680 
     81 H81       -74.0239   29.3678  -70.5015 H         1 UNK         0.1032 
     82 H82       -73.3523   30.6523  -69.5327 H         1 UNK         0.1032 
     83 H83       -71.4410   30.8721  -71.1455 H         1 UNK         0.0461 
     84 H84       -70.3490   30.4843  -69.1552 H         1 UNK         0.3453 
     85 H85       -70.0208   28.8723  -68.5756 H         1 UNK         0.3453 
     86 H86       -73.0202   29.2982  -72.8549 H         1 UNK         0.2984 
     87 H87       -70.5453   28.8815  -75.3386 H         1 UNK         0.0554 
     88 H88       -71.6595   26.6535  -75.6232 H         1 UNK         0.0847 
     89 H89       -72.2336   26.7245  -73.9557 H         1 UNK         0.0847 
     90 H90       -70.5123   26.6320  -74.2928 H         1 UNK         0.0847 
     91 H91       -73.3873   28.4996  -75.3563 H         1 UNK         0.3141 
     92 H92       -74.9053   30.4908  -75.4287 H         1 UNK         0.0743 
     93 H93       -75.3850   32.4146  -76.9084 H         1 UNK         0.0784 
     94 H94       -74.1616   32.8400  -75.7248 H         1 UNK         0.0784 
     95 H95       -73.6883   32.5061  -77.3856 H         1 UNK         0.0784 
     96 H96       -74.4611   30.3451  -78.2941 H         1 UNK         0.3213 
     97 H97       -75.8368   28.5116  -79.2596 H         1 UNK         0.0855 
     98 H98       -73.1911   26.9615  -78.8642 H         1 UNK         0.0814 
     99 H99       -73.3292   28.5152  -79.6766 H         1 UNK         0.0814 
    100 H100      -74.0682   27.0934  -80.3863 H         1 UNK         0.0814 
    101 H101      -75.8251   26.4739  -77.3137 H         1 UNK         0.3105 
    102 H102      -78.1539   24.7362  -78.3942 H         1 UNK         0.0547 
    103 H103      -77.3527   23.3764  -80.2805 H         1 UNK         0.0837 
    104 H104      -75.8428   23.0294  -79.4563 H         1 UNK         0.0837 
    105 H105      -77.3617   22.3936  -78.8292 H         1 UNK         0.0837 
    106 H106      -77.3956   24.4573  -76.3634 H         1 UNK         0.3020 
    107 H107      -74.2878   23.4824  -74.8695 H         1 UNK         0.1245 
    108 H108      -76.0638   25.9499  -74.8743 H         1 UNK         0.0781 
    109 H109      -74.3320   25.8806  -74.8240 H         1 UNK         0.0781 
    110 H110      -77.1300   26.0980  -71.3056 H         1 UNK         0.0836 
    111 H111      -77.6351   25.6426  -72.9122 H         1 UNK         0.0836 
    112 H112      -77.2513   23.4967  -74.4954 H         1 UNK         0.3022 
    113 H113      -77.2716   19.9561  -74.1544 H         1 UNK         0.0747 
    114 H114      -78.5775   20.4555  -72.0917 H         1 UNK         0.0793 
    115 H115      -76.8633   20.6945  -71.7987 H         1 UNK         0.0793 
    116 H116      -77.9086   22.0877  -72.0346 H         1 UNK         0.0793 
    117 H117      -79.3260   21.9447  -74.0646 H         1 UNK         0.3047 
    118 H118      -79.5350   22.8793  -77.3302 H         1 UNK         0.0822 
    119 H119      -81.7758   21.8505  -77.6531 H         1 UNK         0.0807 
    120 H120      -81.4323   20.6532  -76.4028 H         1 UNK         0.0807 
    121 H121      -80.5166   20.6551  -77.9034 H         1 UNK         0.0807 
    122 H122      -81.5646   22.8781  -75.3336 H         1 UNK         0.2946 
    123 H123      -82.0020   24.6338  -74.1081 H         1 UNK         0.1144 
    124 H124      -81.2010   24.8117  -71.7476 H         1 UNK         0.0793 
    125 H125      -79.5454   24.5212  -72.2707 H         1 UNK         0.0793 
    126 H126      -80.7626   23.2694  -72.4567 H         1 UNK         0.0793 
    127 H127      -80.0761   26.7256  -73.3439 H         1 UNK         0.2896 
@<TRIPOS>BOND
     1    1    2 1    
     2    1   67 1    
     3    1   68 1    
     4    1   69 1    
     5    2    3 2    
     6    2    4 am   BACKBONE|DICT|INTERRES
     7    4    5 1    
     8    4   70 1    
     9    5    6 1    
    10    5   65 1    
    11    5   71 1    
    12    6    7 1    
    13    6   72 1    
    14    6   73 1    
    15    7    8 1    
    16    8    9 1    
    17    8   74 1    
    18    8   75 1    
    19    9   10 ar   
    20    9   14 ar   
    21   10   11 ar   
    22   10   76 1    
    23   11   12 ar   
    24   11   48 1    
    25   12   13 ar   
    26   12   77 1    
    27   13   14 ar   
    28   13   15 1    
    29   14   78 1    
    30   15   16 1    
    31   15   79 1    
    32   15   80 1    
    33   16   17 1    
    34   17   18 1    
    35   17   81 1    
    36   17   82 1    
    37   18   19 1    
    38   18   22 1    
    39   18   83 1    
    40   19   20 am   BACKBONE|DICT|INTERRES
    41   19   21 2    
    42   20   84 1    
    43   20   85 1    
    44   22   23 am   BACKBONE|DICT|INTERRES
    45   22   86 1    
    46   23   24 2    
    47   23   25 1    
    48   25   26 1    
    49   25   27 1    
    50   25   87 1    
    51   26   88 1    
    52   26   89 1    
    53   26   90 1    
    54   27   28 am   BACKBONE|DICT|INTERRES
    55   27   91 1    
    56   28   29 2    
    57   28   30 1    
    58   30   31 1    
    59   30   32 1    
    60   30   92 1    
    61   31   93 1    
    62   31   94 1    
    63   31   95 1    
    64   32   33 am   BACKBONE|DICT|INTERRES
    65   32   96 1    
    66   33   34 2    
    67   33   35 1    
    68   35   36 1    
    69   35   37 1    
    70   35   97 1    
    71   36   98 1    
    72   36   99 1    
    73   36  100 1    
    74   37   38 am   BACKBONE|DICT|INTERRES
    75   37  101 1    
    76   38   39 2    
    77   38   40 1    
    78   40   41 1    
    79   40   42 1    
    80   40  102 1    
    81   41  103 1    
    82   41  104 1    
    83   41  105 1    
    84   42   43 am   BACKBONE|DICT|INTERRES
    85   42  106 1    
    86   43   44 2    
    87   43   45 1    
    88   45   46 1    
    89   45   49 1    
    90   45  107 1    
    91   46   47 1    
    92   46  108 1    
    93   46  109 1    
    94   47   48 1    
    95   48  110 1    
    96   48  111 1    
    97   49   50 am   BACKBONE|DICT|INTERRES
    98   49  112 1    
    99   50   51 2    
   100   50   52 1    
   101   52   53 1    
   102   52   54 1    
   103   52  113 1    
   104   53  114 1    
   105   53  115 1    
   106   53  116 1    
   107   54   55 am   BACKBONE|DICT|INTERRES
   108   54  117 1    
   109   55   56 2    
   110   55   57 1    
   111   57   58 1    
   112   57   59 1    
   113   57  118 1    
   114   58  119 1    
   115   58  120 1    
   116   58  121 1    
   117   59   60 am   BACKBONE|DICT|INTERRES
   118   59  122 1    
   119   60   61 2    
   120   60   62 1    
   121   62   63 1    
   122   62   64 1    
   123   62  123 1    
   124   63  124 1    
   125   63  125 1    
   126   63  126 1    
   127   64   65 am   BACKBONE|DICT|INTERRES
   128   64  127 1    
   129   65   66 2    
@<TRIPOS>SUBSTRUCTURE
     1 UNK         1 GROUP             0       ****    0 ROOT    
