@<TRIPOS>MOLECULE
3R135
127   129    1
SMALL
USER_CHARGES


@<TRIPOS>ATOM
      1 CA        -82.9038   31.8267  -76.0666 C.3       0 UNK        -0.1998 
      2 C         -81.9468   30.8560  -75.3910 C.2       0 UNK         0.4909 
      3 O         -80.7363   30.9536  -75.5910 O.2       0 UNK        -0.5240 
      4 N         -82.4818   29.9265  -74.5876 N.am      1 UNK        -0.4739 
      5 CA        -81.7275   28.8807  -73.8871 C.3       1 UNK         0.0864 
      6 C6        -82.6056   28.2202  -72.7913 C.3       11 UNK        -0.0881 
      7 S7        -81.8219   26.8590  -71.8565 S.3       11 UNK        -0.2682 
      8 C8        -81.1345   27.7122  -70.4040 C.3       11 UNK         0.0289 
      9 C9        -79.6185   27.8013  -70.4822 C.ar      11 UNK        -0.0687 
     10 C10       -78.8322   26.7505  -69.9969 C.ar      11 UNK        -0.0823 
     11 C11       -77.4381   26.8348  -70.0362 C.ar      11 UNK        -0.0830 
     12 C12       -76.8353   27.9876  -70.5444 C.ar      11 UNK        -0.1021 
     13 C13       -77.6047   29.0199  -71.0864 C.ar      11 UNK        -0.0753 
     14 C14       -78.9999   28.9276  -71.0362 C.ar      11 UNK        -0.0933 
     15 C15       -76.9304   30.2228  -71.7376 C.3       11 UNK         0.0166 
     16 S16       -75.9774   29.7528  -73.2258 S.3       11 UNK        -0.2615 
     17 C17       -74.3391   29.3414  -72.5241 C.3       11 UNK        -0.0865 
     18 CA        -73.1812   30.0899  -73.2323 C.3       10 UNK         0.0862 
     19 C         -71.8662   30.0273  -72.3959 C.2       10 UNK         0.5551 
     20 N         -70.7417   29.5593  -72.9251 N.am      10 UNK        -0.7319 
     21 O         -71.8643   30.4261  -71.2339 O.2       10 UNK        -0.5018 
     22 N         -73.0318   29.6454  -74.6272 N.am      10 UNK        -0.4509 
     23 C         -72.4967   30.3883  -75.6045 C.2       10 UNK         0.4899 
     24 O         -72.1664   31.5671  -75.4632 O.2       10 UNK        -0.4839 
     25 CA        -72.2791   29.6860  -76.9606 C.3       9 UNK         0.0222 
     26 CB        -71.3070   30.4518  -77.8827 C.3       9 UNK        -0.1966 
     27 N         -71.8641   28.2825  -76.8303 N.am      9 UNK        -0.4218 
     28 C         -70.7917   27.8055  -76.1740 C.2       9 UNK         0.5020 
     29 O         -69.9853   28.5247  -75.5830 O.2       9 UNK        -0.5274 
     30 CA        -70.5906   26.2777  -76.1262 C.3       8 UNK         0.0270 
     31 CB        -70.4172   25.7922  -74.6753 C.3       8 UNK        -0.1976 
     32 N         -71.7092   25.5549  -76.7325 N.am      8 UNK        -0.4313 
     33 C         -71.7606   25.1358  -78.0049 C.2       8 UNK         0.5041 
     34 O         -70.8178   25.2189  -78.7923 O.2       8 UNK        -0.5577 
     35 CA        -73.1025   24.5603  -78.4975 C.3       7 UNK         0.0284 
     36 CB        -73.0726   23.0240  -78.4733 C.3       7 UNK        -0.1958 
     37 N         -74.2520   25.0473  -77.7252 N.am      7 UNK        -0.4454 
     38 C         -74.6796   26.3204  -77.7365 C.2       7 UNK         0.5089 
     39 O         -74.1820   27.1930  -78.4470 O.2       7 UNK        -0.5125 
     40 CA        -75.7898   26.7155  -76.7477 C.3       6 UNK         0.0408 
     41 CB        -77.1541   26.7515  -77.4525 C.3       6 UNK        -0.1791 
     42 N         -75.8605   25.8416  -75.5745 N.am      6 UNK        -0.4762 
     43 C         -74.9046   25.7441  -74.6352 C.2       6 UNK         0.5007 
     44 O         -73.8603   26.3984  -74.6668 O.2       6 UNK        -0.5032 
     45 CA        -75.1397   24.7381  -73.4840 C.3       5 UNK         0.0783 
     46 C46       -75.7547   25.4931  -72.2819 C.3       11 UNK        -0.0857 
     47 S47       -76.3125   24.4384  -70.8974 S.3       11 UNK        -0.2512 
     48 C48       -76.5705   25.6712  -69.5733 C.3       11 UNK         0.0225 
     49 N         -75.9612   23.5906  -73.8804 N.am      5 UNK        -0.4615 
     50 C         -75.7141   22.7336  -74.8799 C.2       4 UNK         0.5053 
     51 O         -74.6960   22.7652  -75.5696 O.2       4 UNK        -0.5105 
     52 CA        -76.8212   21.7102  -75.2065 C.3       4 UNK         0.0263 
     53 CB        -76.5032   20.3543  -74.5571 C.3       4 UNK        -0.1981 
     54 N         -78.1729   22.1361  -74.8097 N.am      4 UNK        -0.4224 
     55 C         -78.7699   23.2684  -75.2114 C.2       3 UNK         0.4895 
     56 O         -78.2473   24.0654  -75.9946 O.2       3 UNK        -0.5091 
     57 CA        -80.1333   23.5909  -74.5773 C.3       3 UNK         0.0250 
     58 CB        -79.9959   23.7887  -73.0558 C.3       3 UNK        -0.1996 
     59 N         -80.6694   24.8234  -75.1498 N.am      3 UNK        -0.4254 
     60 C         -81.3917   24.9226  -76.2700 C.2       2 UNK         0.5004 
     61 O         -81.8519   23.9471  -76.8671 O.2       2 UNK        -0.5226 
     62 CA        -81.6312   26.3508  -76.8159 C.3       2 UNK         0.0269 
     63 CB        -82.7089   26.3906  -77.9159 C.3       2 UNK        -0.1926 
     64 N         -81.9770   27.3376  -75.7836 N.am      2 UNK        -0.4687 
     65 C         -81.1335   27.8614  -74.8814 C.2       1 UNK         0.5165 
     66 O         -79.9396   27.5661  -74.8187 O.2       1 UNK        -0.5079 
     67 H67       -82.6646   32.8502  -75.7795 H         1 UNK         0.0900 
     68 H68       -83.9415   31.6327  -75.7962 H         1 UNK         0.0900 
     69 H69       -82.8154   31.7471  -77.1498 H         1 UNK         0.0900 
     70 H70       -83.4838   29.9089  -74.4596 H         1 UNK         0.2959 
     71 H71       -80.8819   29.3624  -73.3927 H         1 UNK         0.1079 
     72 H72       -82.9547   28.9799  -72.0906 H         1 UNK         0.0837 
     73 H73       -83.5111   27.8104  -73.2423 H         1 UNK         0.0837 
     74 H74       -81.4229   27.1596  -69.5086 H         1 UNK         0.0685 
     75 H75       -81.5676   28.7070  -70.2924 H         1 UNK         0.0685 
     76 H76       -79.3057   25.8625  -69.6004 H         1 UNK         0.1434 
     77 H77       -75.7586   28.0524  -70.5643 H         1 UNK         0.1329 
     78 H78       -79.6059   29.7311  -71.4302 H         1 UNK         0.1335 
     79 H79       -76.2907   30.7297  -71.0142 H         1 UNK         0.0680 
     80 H80       -77.6808   30.9553  -72.0387 H         1 UNK         0.0680 
     81 H81       -74.1852   28.2643  -72.5885 H         1 UNK         0.1032 
     82 H82       -74.3437   29.5832  -71.4604 H         1 UNK         0.1032 
     83 H83       -73.4514   31.1476  -73.2487 H         1 UNK         0.0461 
     84 H84       -69.9099   29.5387  -72.3576 H         1 UNK         0.3453 
     85 H85       -70.6924   29.2549  -73.8914 H         1 UNK         0.3453 
     86 H86       -73.2649   28.6785  -74.8129 H         1 UNK         0.2984 
     87 H87       -73.2537   29.6704  -77.4503 H         1 UNK         0.0554 
     88 H88       -71.1918   29.9487  -78.8427 H         1 UNK         0.0847 
     89 H89       -70.3177   30.5502  -77.4344 H         1 UNK         0.0847 
     90 H90       -71.6722   31.4586  -78.0889 H         1 UNK         0.0847 
     91 H91       -72.4718   27.6193  -77.2971 H         1 UNK         0.3141 
     92 H92       -69.6691   26.0569  -76.6687 H         1 UNK         0.0743 
     93 H93       -71.2771   26.0480  -74.0555 H         1 UNK         0.0784 
     94 H94       -70.2812   24.7115  -74.6319 H         1 UNK         0.0784 
     95 H95       -69.5392   26.2452  -74.2128 H         1 UNK         0.0784 
     96 H96       -72.5405   25.4721  -76.1590 H         1 UNK         0.3213 
     97 H97       -73.2363   24.8811  -79.5330 H         1 UNK         0.0855 
     98 H98       -72.8743   22.6385  -77.4729 H         1 UNK         0.0814 
     99 H99       -72.2876   22.6419  -79.1273 H         1 UNK         0.0814 
    100 H100      -74.0160   22.5998  -78.8173 H         1 UNK         0.0814 
    101 H101      -74.6836   24.3906  -77.0847 H         1 UNK         0.3105 
    102 H102      -75.5682   27.7241  -76.3915 H         1 UNK         0.0547 
    103 H103      -77.1483   27.4670  -78.2757 H         1 UNK         0.0837 
    104 H104      -77.4199   25.7793  -77.8687 H         1 UNK         0.0837 
    105 H105      -77.9474   27.0516  -76.7673 H         1 UNK         0.0837 
    106 H106      -76.6817   25.2464  -75.5088 H         1 UNK         0.3020 
    107 H107      -74.1628   24.3482  -73.1902 H         1 UNK         0.1245 
    108 H108      -76.6172   26.0794  -72.6084 H         1 UNK         0.0781 
    109 H109      -75.0242   26.2013  -71.8901 H         1 UNK         0.0781 
    110 H110      -75.6008   26.0347  -69.2294 H         1 UNK         0.0836 
    111 H111      -77.0321   25.1808  -68.7151 H         1 UNK         0.0836 
    112 H112      -76.8133   23.4705  -73.3536 H         1 UNK         0.3022 
    113 H113      -76.8261   21.5794  -76.2906 H         1 UNK         0.0747 
    114 H114      -77.2205   19.5906  -74.8582 H         1 UNK         0.0793 
    115 H115      -75.5145   20.0016  -74.8548 H         1 UNK         0.0793 
    116 H116      -76.5127   20.4159  -73.4680 H         1 UNK         0.0793 
    117 H117      -78.6627   21.5324  -74.1645 H         1 UNK         0.3047 
    118 H118      -80.8156   22.7616  -74.7752 H         1 UNK         0.0822 
    119 H119      -79.6218   22.8914  -72.5620 H         1 UNK         0.0807 
    120 H120      -80.9607   24.0179  -72.6032 H         1 UNK         0.0807 
    121 H121      -79.3145   24.6060  -72.8121 H         1 UNK         0.0807 
    122 H122      -80.2833   25.6891  -74.7845 H         1 UNK         0.2946 
    123 H123      -80.6868   26.6597  -77.2705 H         1 UNK         0.1144 
    124 H124      -82.4483   25.7326  -78.7462 H         1 UNK         0.0793 
    125 H125      -82.8202   27.3940  -78.3275 H         1 UNK         0.0793 
    126 H126      -83.6810   26.0712  -77.5383 H         1 UNK         0.0793 
    127 H127      -82.9435   27.6276  -75.7513 H         1 UNK         0.2896 
@<TRIPOS>BOND
     1    1    2 1    
     2    1   67 1    
     3    1   68 1    
     4    1   69 1    
     5    2    3 2    
     6    2    4 am   BACKBONE|DICT|INTERRES
     7    4    5 1    
     8    4   70 1    
     9    5    6 1    
    10    5   65 1    
    11    5   71 1    
    12    6    7 1    
    13    6   72 1    
    14    6   73 1    
    15    7    8 1    
    16    8    9 1    
    17    8   74 1    
    18    8   75 1    
    19    9   10 ar   
    20    9   14 ar   
    21   10   11 ar   
    22   10   76 1    
    23   11   12 ar   
    24   11   48 1    
    25   12   13 ar   
    26   12   77 1    
    27   13   14 ar   
    28   13   15 1    
    29   14   78 1    
    30   15   16 1    
    31   15   79 1    
    32   15   80 1    
    33   16   17 1    
    34   17   18 1    
    35   17   81 1    
    36   17   82 1    
    37   18   19 1    
    38   18   22 1    
    39   18   83 1    
    40   19   20 am   BACKBONE|DICT|INTERRES
    41   19   21 2    
    42   20   84 1    
    43   20   85 1    
    44   22   23 am   BACKBONE|DICT|INTERRES
    45   22   86 1    
    46   23   24 2    
    47   23   25 1    
    48   25   26 1    
    49   25   27 1    
    50   25   87 1    
    51   26   88 1    
    52   26   89 1    
    53   26   90 1    
    54   27   28 am   BACKBONE|DICT|INTERRES
    55   27   91 1    
    56   28   29 2    
    57   28   30 1    
    58   30   31 1    
    59   30   32 1    
    60   30   92 1    
    61   31   93 1    
    62   31   94 1    
    63   31   95 1    
    64   32   33 am   BACKBONE|DICT|INTERRES
    65   32   96 1    
    66   33   34 2    
    67   33   35 1    
    68   35   36 1    
    69   35   37 1    
    70   35   97 1    
    71   36   98 1    
    72   36   99 1    
    73   36  100 1    
    74   37   38 am   BACKBONE|DICT|INTERRES
    75   37  101 1    
    76   38   39 2    
    77   38   40 1    
    78   40   41 1    
    79   40   42 1    
    80   40  102 1    
    81   41  103 1    
    82   41  104 1    
    83   41  105 1    
    84   42   43 am   BACKBONE|DICT|INTERRES
    85   42  106 1    
    86   43   44 2    
    87   43   45 1    
    88   45   46 1    
    89   45   49 1    
    90   45  107 1    
    91   46   47 1    
    92   46  108 1    
    93   46  109 1    
    94   47   48 1    
    95   48  110 1    
    96   48  111 1    
    97   49   50 am   BACKBONE|DICT|INTERRES
    98   49  112 1    
    99   50   51 2    
   100   50   52 1    
   101   52   53 1    
   102   52   54 1    
   103   52  113 1    
   104   53  114 1    
   105   53  115 1    
   106   53  116 1    
   107   54   55 am   BACKBONE|DICT|INTERRES
   108   54  117 1    
   109   55   56 2    
   110   55   57 1    
   111   57   58 1    
   112   57   59 1    
   113   57  118 1    
   114   58  119 1    
   115   58  120 1    
   116   58  121 1    
   117   59   60 am   BACKBONE|DICT|INTERRES
   118   59  122 1    
   119   60   61 2    
   120   60   62 1    
   121   62   63 1    
   122   62   64 1    
   123   62  123 1    
   124   63  124 1    
   125   63  125 1    
   126   63  126 1    
   127   64   65 am   BACKBONE|DICT|INTERRES
   128   64  127 1    
   129   65   66 2    
@<TRIPOS>SUBSTRUCTURE
     1 UNK         1 GROUP             0       ****    0 ROOT    
