@<TRIPOS>MOLECULE
3R135
127   129    1
SMALL
USER_CHARGES


@<TRIPOS>ATOM
      1 CA        -84.9742   30.2410  -74.0257 C.3       0 UNK        -0.1998 
      2 C         -83.6777   29.5122  -74.3465 C.2       0 UNK         0.4909 
      3 O         -83.3793   29.2808  -75.5191 O.2       0 UNK        -0.5240 
      4 N         -82.9016   29.1579  -73.3149 N.am      1 UNK        -0.4739 
      5 CA        -81.6426   28.4118  -73.4293 C.3       1 UNK         0.0864 
      6 C6        -80.8040   28.4927  -72.1282 C.3       11 UNK        -0.0881 
      7 S7        -80.4119   30.2143  -71.6548 S.3       11 UNK        -0.2682 
      8 C8        -79.5827   29.9863  -70.0475 C.3       11 UNK         0.0289 
      9 C9        -78.1987   29.3815  -70.2215 C.ar      11 UNK        -0.0687 
     10 C10       -78.0221   27.9994  -70.1273 C.ar      11 UNK        -0.0823 
     11 C11       -76.7739   27.4258  -70.3807 C.ar      11 UNK        -0.0830 
     12 C12       -75.6863   28.2499  -70.6868 C.ar      11 UNK        -0.1021 
     13 C13       -75.8435   29.6375  -70.7604 C.ar      11 UNK        -0.0753 
     14 C14       -77.1025   30.1980  -70.5170 C.ar      11 UNK        -0.0933 
     15 C15       -74.6506   30.5164  -71.1251 C.3       11 UNK         0.0166 
     16 S16       -74.9758   31.6571  -72.5134 S.3       11 UNK        -0.2615 
     17 C17       -75.5259   30.5353  -73.8496 C.3       11 UNK        -0.0865 
     18 CA        -74.5218   30.2956  -75.0140 C.3       10 UNK         0.0862 
     19 C         -74.1438   31.5631  -75.8414 C.2       10 UNK         0.5551 
     20 N         -72.9820   31.6093  -76.4806 N.am      10 UNK        -0.7319 
     21 O         -74.9364   32.4950  -75.9558 O.2       10 UNK        -0.5018 
     22 N         -73.4459   29.3493  -74.6636 N.am      10 UNK        -0.4509 
     23 C         -72.2988   29.6099  -74.0236 C.2       10 UNK         0.4899 
     24 O         -71.9363   30.7394  -73.6964 O.2       10 UNK        -0.4839 
     25 CA        -71.3794   28.4292  -73.6682 C.3       9 UNK         0.0222 
     26 CB        -71.3224   28.2348  -72.1392 C.3       9 UNK        -0.1966 
     27 N         -71.7206   27.1491  -74.3077 N.am      9 UNK        -0.4218 
     28 C         -70.8156   26.1872  -74.5426 C.2       9 UNK         0.5020 
     29 O         -69.5998   26.3446  -74.4140 O.2       9 UNK        -0.5274 
     30 CA        -71.3403   24.7905  -74.9121 C.3       8 UNK         0.0270 
     31 CB        -71.9807   24.1181  -73.6858 C.3       8 UNK        -0.1976 
     32 N         -72.2752   24.7665  -76.0377 N.am      8 UNK        -0.4313 
     33 C         -71.9303   24.9703  -77.3168 C.2       8 UNK         0.5041 
     34 O         -70.7957   25.2825  -77.6808 O.2       8 UNK        -0.5577 
     35 CA        -73.0263   24.7610  -78.3777 C.3       7 UNK         0.0284 
     36 CB        -73.2322   23.2645  -78.6649 C.3       7 UNK        -0.1958 
     37 N         -74.3021   25.3642  -77.9959 N.am      7 UNK        -0.4454 
     38 C         -74.5279   26.6841  -77.9627 C.2       7 UNK         0.5089 
     39 O         -73.7175   27.5337  -78.3330 O.2       7 UNK        -0.5125 
     40 CA        -75.8763   27.1355  -77.3792 C.3       6 UNK         0.0408 
     41 CB        -76.9802   27.0813  -78.4463 C.3       6 UNK        -0.1791 
     42 N         -76.2828   26.3677  -76.1984 N.am      6 UNK        -0.4762 
     43 C         -75.5693   26.2349  -75.0693 C.2       6 UNK         0.5007 
     44 O         -74.4800   26.7749  -74.8719 O.2       6 UNK        -0.5032 
     45 CA        -76.1429   25.3025  -73.9897 C.3       5 UNK         0.0783 
     46 C46       -77.2337   26.0265  -73.1731 C.3       11 UNK        -0.0857 
     47 S47       -77.6770   25.1166  -71.6543 S.3       11 UNK        -0.2512 
     48 C48       -76.6170   25.9112  -70.3957 C.3       11 UNK         0.0225 
     49 N         -76.6172   24.0421  -74.5653 N.am      5 UNK        -0.4615 
     50 C         -75.8375   23.1409  -75.1772 C.2       4 UNK         0.5053 
     51 O         -74.6190   23.2561  -75.2949 O.2       4 UNK        -0.5105 
     52 CA        -76.5486   21.9361  -75.8114 C.3       4 UNK         0.0263 
     53 CB        -76.8856   20.8802  -74.7468 C.3       4 UNK        -0.1981 
     54 N         -77.7667   22.3298  -76.5231 N.am      4 UNK        -0.4224 
     55 C         -77.7850   23.1061  -77.6169 C.2       3 UNK         0.4895 
     56 O         -76.7717   23.5150  -78.1853 O.2       3 UNK        -0.5091 
     57 CA        -79.1708   23.5341  -78.1324 C.3       3 UNK         0.0250 
     58 CB        -79.7597   22.4589  -79.0595 C.3       3 UNK        -0.1996 
     59 N         -80.1228   23.8356  -77.0546 N.am      3 UNK        -0.4254 
     60 C         -79.9705   24.8359  -76.1760 C.2       2 UNK         0.5004 
     61 O         -79.0089   25.6083  -76.1799 O.2       2 UNK        -0.5226 
     62 CA        -81.0346   24.9744  -75.0823 C.3       2 UNK         0.0269 
     63 CB        -80.7951   23.9441  -73.9609 C.3       2 UNK        -0.1926 
     64 N         -80.9670   26.3355  -74.5515 N.am      2 UNK        -0.4687 
     65 C         -81.9095   26.9411  -73.8216 C.2       1 UNK         0.5165 
     66 O         -82.9442   26.3818  -73.4468 O.2       1 UNK        -0.5079 
     67 H67       -84.9854   31.2175  -74.5091 H         1 UNK         0.0900 
     68 H68       -85.1024   30.3920  -72.9540 H         1 UNK         0.0900 
     69 H69       -85.8263   29.6690  -74.3919 H         1 UNK         0.0900 
     70 H70       -83.1979   29.3667  -72.3724 H         1 UNK         0.2959 
     71 H71       -81.0628   28.8695  -74.2345 H         1 UNK         0.1079 
     72 H72       -81.3281   28.0104  -71.3006 H         1 UNK         0.0837 
     73 H73       -79.8639   27.9530  -72.2567 H         1 UNK         0.0837 
     74 H74       -79.5002   30.9549  -69.5522 H         1 UNK         0.0685 
     75 H75       -80.2001   29.3627  -69.3990 H         1 UNK         0.0685 
     76 H76       -78.8684   27.3618  -69.9103 H         1 UNK         0.1434 
     77 H77       -74.7213   27.8082  -70.8938 H         1 UNK         0.1329 
     78 H78       -77.2365   31.2685  -70.5928 H         1 UNK         0.1335 
     79 H79       -73.7836   29.9061  -71.3787 H         1 UNK         0.0680 
     80 H80       -74.3667   31.1026  -70.2504 H         1 UNK         0.0680 
     81 H81       -76.4501   30.9533  -74.2523 H         1 UNK         0.1032 
     82 H82       -75.8200   29.5734  -73.4294 H         1 UNK         0.1032 
     83 H83       -75.0958   29.7299  -75.7426 H         1 UNK         0.0461 
     84 H84       -72.7486   32.4216  -77.0290 H         1 UNK         0.3453 
     85 H85       -72.3253   30.8510  -76.3905 H         1 UNK         0.3453 
     86 H86       -73.6702   28.3831  -74.8806 H         1 UNK         0.2984 
     87 H87       -70.3870   28.7336  -74.0076 H         1 UNK         0.0554 
     88 H88       -70.5471   27.5227  -71.8564 H         1 UNK         0.0847 
     89 H89       -72.2714   27.8681  -71.7472 H         1 UNK         0.0847 
     90 H90       -71.0960   29.1711  -71.6272 H         1 UNK         0.0847 
     91 H91       -72.7051   26.9405  -74.4610 H         1 UNK         0.3141 
     92 H92       -70.4753   24.1873  -75.1968 H         1 UNK         0.0743 
     93 H93       -71.2968   24.1198  -72.8358 H         1 UNK         0.0784 
     94 H94       -72.8915   24.6287  -73.3728 H         1 UNK         0.0784 
     95 H95       -72.2347   23.0783  -73.8925 H         1 UNK         0.0784 
     96 H96       -73.2197   24.4491  -75.8335 H         1 UNK         0.3213 
     97 H97       -72.6892   25.2373  -79.3012 H         1 UNK         0.0855 
     98 H98       -72.2982   22.7951  -78.9765 H         1 UNK         0.0814 
     99 H99       -73.9559   23.1115  -79.4657 H         1 UNK         0.0814 
    100 H100      -73.5907   22.7272  -77.7863 H         1 UNK         0.0814 
    101 H101      -75.0509   24.7373  -77.7214 H         1 UNK         0.3105 
    102 H102      -75.7732   28.1744  -77.0745 H         1 UNK         0.0547 
    103 H103      -76.7203   27.6999  -79.3062 H         1 UNK         0.0837 
    104 H104      -77.1410   26.0683  -78.8130 H         1 UNK         0.0837 
    105 H105      -77.9288   27.4507  -78.0564 H         1 UNK         0.0837 
    106 H106      -77.1991   25.9245  -76.2446 H         1 UNK         0.3020 
    107 H107      -75.3177   25.0636  -73.3156 H         1 UNK         0.1245 
    108 H108      -78.1403   26.1477  -73.7653 H         1 UNK         0.0781 
    109 H109      -76.9224   27.0408  -72.9241 H         1 UNK         0.0781 
    110 H110      -75.5796   25.6287  -70.5811 H         1 UNK         0.0836 
    111 H111      -76.8727   25.5138  -69.4126 H         1 UNK         0.0836 
    112 H112      -77.6117   23.8824  -74.5316 H         1 UNK         0.3022 
    113 H113      -75.8635   21.4885  -76.5349 H         1 UNK         0.0747 
    114 H114      -77.3223   19.9886  -75.1973 H         1 UNK         0.0793 
    115 H115      -75.9869   20.5648  -74.2145 H         1 UNK         0.0793 
    116 H116      -77.5879   21.2598  -74.0034 H         1 UNK         0.0793 
    117 H117      -78.6470   22.0292  -76.1319 H         1 UNK         0.3047 
    118 H118      -79.0335   24.4463  -78.7168 H         1 UNK         0.0822 
    119 H119      -80.6967   22.7909  -79.5070 H         1 UNK         0.0807 
    120 H120      -79.9523   21.5254  -78.5292 H         1 UNK         0.0807 
    121 H121      -79.0747   22.2332  -79.8782 H         1 UNK         0.0807 
    122 H122      -80.9370   23.2412  -76.9874 H         1 UNK         0.2946 
    123 H123      -82.0185   24.8165  -75.5301 H         1 UNK         0.1144 
    124 H124      -81.5552   24.0144  -73.1829 H         1 UNK         0.0793 
    125 H125      -79.8238   24.0828  -73.4870 H         1 UNK         0.0793 
    126 H126      -80.8290   22.9244  -74.3461 H         1 UNK         0.0793 
    127 H127      -80.1488   26.8470  -74.8605 H         1 UNK         0.2896 
@<TRIPOS>BOND
     1    1    2 1    
     2    1   67 1    
     3    1   68 1    
     4    1   69 1    
     5    2    3 2    
     6    2    4 am   BACKBONE|DICT|INTERRES
     7    4    5 1    
     8    4   70 1    
     9    5    6 1    
    10    5   65 1    
    11    5   71 1    
    12    6    7 1    
    13    6   72 1    
    14    6   73 1    
    15    7    8 1    
    16    8    9 1    
    17    8   74 1    
    18    8   75 1    
    19    9   10 ar   
    20    9   14 ar   
    21   10   11 ar   
    22   10   76 1    
    23   11   12 ar   
    24   11   48 1    
    25   12   13 ar   
    26   12   77 1    
    27   13   14 ar   
    28   13   15 1    
    29   14   78 1    
    30   15   16 1    
    31   15   79 1    
    32   15   80 1    
    33   16   17 1    
    34   17   18 1    
    35   17   81 1    
    36   17   82 1    
    37   18   19 1    
    38   18   22 1    
    39   18   83 1    
    40   19   20 am   BACKBONE|DICT|INTERRES
    41   19   21 2    
    42   20   84 1    
    43   20   85 1    
    44   22   23 am   BACKBONE|DICT|INTERRES
    45   22   86 1    
    46   23   24 2    
    47   23   25 1    
    48   25   26 1    
    49   25   27 1    
    50   25   87 1    
    51   26   88 1    
    52   26   89 1    
    53   26   90 1    
    54   27   28 am   BACKBONE|DICT|INTERRES
    55   27   91 1    
    56   28   29 2    
    57   28   30 1    
    58   30   31 1    
    59   30   32 1    
    60   30   92 1    
    61   31   93 1    
    62   31   94 1    
    63   31   95 1    
    64   32   33 am   BACKBONE|DICT|INTERRES
    65   32   96 1    
    66   33   34 2    
    67   33   35 1    
    68   35   36 1    
    69   35   37 1    
    70   35   97 1    
    71   36   98 1    
    72   36   99 1    
    73   36  100 1    
    74   37   38 am   BACKBONE|DICT|INTERRES
    75   37  101 1    
    76   38   39 2    
    77   38   40 1    
    78   40   41 1    
    79   40   42 1    
    80   40  102 1    
    81   41  103 1    
    82   41  104 1    
    83   41  105 1    
    84   42   43 am   BACKBONE|DICT|INTERRES
    85   42  106 1    
    86   43   44 2    
    87   43   45 1    
    88   45   46 1    
    89   45   49 1    
    90   45  107 1    
    91   46   47 1    
    92   46  108 1    
    93   46  109 1    
    94   47   48 1    
    95   48  110 1    
    96   48  111 1    
    97   49   50 am   BACKBONE|DICT|INTERRES
    98   49  112 1    
    99   50   51 2    
   100   50   52 1    
   101   52   53 1    
   102   52   54 1    
   103   52  113 1    
   104   53  114 1    
   105   53  115 1    
   106   53  116 1    
   107   54   55 am   BACKBONE|DICT|INTERRES
   108   54  117 1    
   109   55   56 2    
   110   55   57 1    
   111   57   58 1    
   112   57   59 1    
   113   57  118 1    
   114   58  119 1    
   115   58  120 1    
   116   58  121 1    
   117   59   60 am   BACKBONE|DICT|INTERRES
   118   59  122 1    
   119   60   61 2    
   120   60   62 1    
   121   62   63 1    
   122   62   64 1    
   123   62  123 1    
   124   63  124 1    
   125   63  125 1    
   126   63  126 1    
   127   64   65 am   BACKBONE|DICT|INTERRES
   128   64  127 1    
   129   65   66 2    
@<TRIPOS>SUBSTRUCTURE
     1 UNK         1 GROUP             0       ****    0 ROOT    
