@<TRIPOS>MOLECULE
3R135
127   129    1
SMALL
USER_CHARGES


@<TRIPOS>ATOM
      1 CA        -85.2439   27.6163  -74.9435 C.3       0 UNK        -0.1998 
      2 C         -83.8347   28.1443  -75.1648 C.2       0 UNK         0.4909 
      3 O         -83.3003   28.0209  -76.2675 O.2       0 UNK        -0.5240 
      4 N         -83.2302   28.7366  -74.1274 N.am      1 UNK        -0.4739 
      5 CA        -81.8446   29.2161  -74.1219 C.3       1 UNK         0.0864 
      6 C6        -81.5551   30.1436  -72.9090 C.3       11 UNK        -0.0881 
      7 S7        -82.0344   29.4428  -71.2855 S.3       11 UNK        -0.2682 
      8 C8        -80.5427   29.7106  -70.2686 C.3       11 UNK         0.0289 
      9 C9        -79.3224   28.9443  -70.7670 C.ar      11 UNK        -0.0687 
     10 C10       -79.3651   27.5551  -70.9191 C.ar      11 UNK        -0.0823 
     11 C11       -78.2564   26.8444  -71.3929 C.ar      11 UNK        -0.0830 
     12 C12       -77.0791   27.5494  -71.6830 C.ar      11 UNK        -0.1021 
     13 C13       -77.0188   28.9373  -71.5277 C.ar      11 UNK        -0.0753 
     14 C14       -78.1426   29.6284  -71.0690 C.ar      11 UNK        -0.0933 
     15 C15       -75.7471   29.6994  -71.8680 C.3       11 UNK         0.0166 
     16 S16       -75.8625   30.4400  -73.5243 S.3       11 UNK        -0.2615 
     17 C17       -74.3344   31.4359  -73.5873 C.3       11 UNK        -0.0865 
     18 CA        -73.3273   30.9284  -74.6599 C.3       10 UNK         0.0862 
     19 C         -72.1338   31.8998  -74.8967 C.2       10 UNK         0.5551 
     20 N         -71.2012   31.5459  -75.7711 N.am      10 UNK        -0.7319 
     21 O         -72.0474   32.9719  -74.3015 O.2       10 UNK        -0.5018 
     22 N         -72.8901   29.5399  -74.4406 N.am      10 UNK        -0.4509 
     23 C         -72.1700   29.0908  -73.4027 C.2       10 UNK         0.4899 
     24 O         -71.8197   29.7816  -72.4458 O.2       10 UNK        -0.4839 
     25 CA        -71.7730   27.6075  -73.4392 C.3       9 UNK         0.0222 
     26 CB        -72.9227   26.7388  -72.9122 C.3       9 UNK        -0.1966 
     27 N         -71.4110   27.1787  -74.7919 N.am      9 UNK        -0.4218 
     28 C         -70.2211   27.4301  -75.3606 C.2       9 UNK         0.5020 
     29 O         -69.2768   27.9521  -74.7659 O.2       9 UNK        -0.5274 
     30 CA        -70.0415   27.0495  -76.8434 C.3       8 UNK         0.0270 
     31 CB        -69.4147   25.6510  -76.9668 C.3       8 UNK        -0.1976 
     32 N         -71.2840   27.0892  -77.6168 N.am      8 UNK        -0.4313 
     33 C         -72.0300   28.1825  -77.8271 C.2       8 UNK         0.5041 
     34 O         -71.7030   29.3125  -77.4647 O.2       8 UNK        -0.5577 
     35 CA        -73.3931   27.9817  -78.5147 C.3       7 UNK         0.0284 
     36 CB        -73.3035   28.3647  -80.0005 C.3       7 UNK        -0.1958 
     37 N         -73.9485   26.6261  -78.3953 N.am      7 UNK        -0.4454 
     38 C         -74.2361   26.0005  -77.2448 C.2       7 UNK         0.5089 
     39 O         -74.0113   26.4897  -76.1346 O.2       7 UNK        -0.5125 
     40 CA        -74.8601   24.5999  -77.3897 C.3       6 UNK         0.0408 
     41 CB        -73.8620   23.5863  -77.9890 C.3       6 UNK        -0.1791 
     42 N         -75.4557   24.1041  -76.1439 N.am      6 UNK        -0.4762 
     43 C         -74.8388   23.6813  -75.0281 C.2       6 UNK         0.5007 
     44 O         -73.6189   23.5606  -74.9064 O.2       6 UNK        -0.5032 
     45 CA        -75.7494   23.3343  -73.8310 C.3       5 UNK         0.0783 
     46 C46       -76.0242   24.6165  -73.0125 C.3       11 UNK        -0.0857 
     47 S47       -76.9040   24.3303  -71.4419 S.3       11 UNK        -0.2512 
     48 C48       -78.4125   25.3407  -71.6473 C.3       11 UNK         0.0225 
     49 N         -76.9830   22.6586  -74.2480 N.am      5 UNK        -0.4615 
     50 C         -77.0503   21.4376  -74.7943 C.2       4 UNK         0.5053 
     51 O         -76.0685   20.7103  -74.9460 O.2       4 UNK        -0.5105 
     52 CA        -78.4259   20.9327  -75.2784 C.3       4 UNK         0.0263 
     53 CB        -79.1232   20.0893  -74.1921 C.3       4 UNK        -0.1981 
     54 N         -79.3118   21.9794  -75.8160 N.am      4 UNK        -0.4224 
     55 C         -79.9063   22.9827  -75.1570 C.2       3 UNK         0.4895 
     56 O         -79.8449   23.1397  -73.9365 O.2       3 UNK        -0.5091 
     57 CA        -80.6437   24.0258  -76.0118 C.3       3 UNK         0.0250 
     58 CB        -82.1652   23.9092  -75.8289 C.3       3 UNK        -0.1996 
     59 N         -80.2189   25.3773  -75.6465 N.am      3 UNK        -0.4254 
     60 C         -78.9787   25.8633  -75.7761 C.2       2 UNK         0.5004 
     61 O         -78.0741   25.2312  -76.3245 O.2       2 UNK        -0.5226 
     62 CA        -78.6707   27.2621  -75.1895 C.3       2 UNK         0.0269 
     63 CB        -77.5704   27.9778  -75.9945 C.3       2 UNK        -0.1926 
     64 N         -79.8078   28.1818  -75.0308 N.am      2 UNK        -0.4687 
     65 C         -80.8537   28.0360  -74.2046 C.2       1 UNK         0.5165 
     66 O         -81.0608   27.0198  -73.5383 O.2       1 UNK        -0.5079 
     67 H67       -85.9374   28.0954  -75.6341 H         1 UNK         0.0900 
     68 H68       -85.2729   26.5416  -75.1210 H         1 UNK         0.0900 
     69 H69       -85.5936   27.8019  -73.9280 H         1 UNK         0.0900 
     70 H70       -83.6959   28.7784  -73.2315 H         1 UNK         0.2959 
     71 H71       -81.7148   29.8157  -75.0259 H         1 UNK         0.1079 
     72 H72       -82.1087   31.0755  -73.0334 H         1 UNK         0.0837 
     73 H73       -80.5032   30.4352  -72.8950 H         1 UNK         0.0837 
     74 H74       -80.7571   29.3966  -69.2463 H         1 UNK         0.0685 
     75 H75       -80.3394   30.7817  -70.2232 H         1 UNK         0.0685 
     76 H76       -80.2871   27.0309  -70.7064 H         1 UNK         0.1434 
     77 H77       -76.2049   27.0371  -72.0504 H         1 UNK         0.1329 
     78 H78       -78.0969   30.7031  -70.9570 H         1 UNK         0.1335 
     79 H79       -74.8788   29.0405  -71.8249 H         1 UNK         0.0680 
     80 H80       -75.5811   30.4831  -71.1272 H         1 UNK         0.0680 
     81 H81       -73.8651   31.4750  -72.6032 H         1 UNK         0.1032 
     82 H82       -74.6332   32.4615  -73.8110 H         1 UNK         0.1032 
     83 H83       -73.8640   30.9168  -75.6095 H         1 UNK         0.0461 
     84 H84       -70.4194   32.1576  -75.9401 H         1 UNK         0.3453 
     85 H85       -71.3064   30.6902  -76.3144 H         1 UNK         0.3453 
     86 H86       -73.1132   28.8918  -75.1815 H         1 UNK         0.2984 
     87 H87       -70.9136   27.4652  -72.7804 H         1 UNK         0.0554 
     88 H88       -72.6687   25.6792  -72.9484 H         1 UNK         0.0847 
     89 H89       -73.8327   26.8889  -73.4941 H         1 UNK         0.0847 
     90 H90       -73.1545   26.9847  -71.8751 H         1 UNK         0.0847 
     91 H91       -72.1515   26.7622  -75.3487 H         1 UNK         0.3141 
     92 H92       -69.3550   27.7747  -77.2854 H         1 UNK         0.0743 
     93 H93       -70.0693   24.8776  -76.5622 H         1 UNK         0.0784 
     94 H94       -69.1996   25.4014  -78.0060 H         1 UNK         0.0784 
     95 H95       -68.4715   25.5973  -76.4212 H         1 UNK         0.0784 
     96 H96       -71.6347   26.2076  -77.9605 H         1 UNK         0.3213 
     97 H97       -74.0953   28.6625  -78.0285 H         1 UNK         0.0855 
     98 H98       -74.2826   28.3363  -80.4791 H         1 UNK         0.0814 
     99 H99       -72.6388   27.6975  -80.5508 H         1 UNK         0.0814 
    100 H100      -72.9180   29.3785  -80.1194 H         1 UNK         0.0814 
    101 H101      -74.1671   26.1568  -79.2627 H         1 UNK         0.3105 
    102 H102      -75.6955   24.6979  -78.0846 H         1 UNK         0.0547 
    103 H103      -74.2907   22.5849  -78.0285 H         1 UNK         0.0837 
    104 H104      -72.9374   23.5312  -77.4136 H         1 UNK         0.0837 
    105 H105      -73.5882   23.8568  -79.0090 H         1 UNK         0.0837 
    106 H106      -76.4629   24.2427  -76.0950 H         1 UNK         0.3020 
    107 H107      -75.1926   22.6383  -73.1992 H         1 UNK         0.1245 
    108 H108      -76.5669   25.3429  -73.6198 H         1 UNK         0.0781 
    109 H109      -75.0797   25.0856  -72.7424 H         1 UNK         0.0781 
    110 H110      -79.1614   24.9362  -70.9647 H         1 UNK         0.0836 
    111 H111      -78.8168   25.1944  -72.6486 H         1 UNK         0.0836 
    112 H112      -77.8552   23.1527  -74.0953 H         1 UNK         0.3022 
    113 H113      -78.2251   20.2686  -76.1208 H         1 UNK         0.0747 
    114 H114      -80.0754   19.6943  -74.5460 H         1 UNK         0.0793 
    115 H115      -78.5041   19.2374  -73.9080 H         1 UNK         0.0793 
    116 H116      -79.3132   20.6633  -73.2848 H         1 UNK         0.0793 
    117 H117      -79.4036   21.9702  -76.8230 H         1 UNK         0.3047 
    118 H118      -80.4029   23.8701  -77.0654 H         1 UNK         0.0822 
    119 H119      -82.6958   24.6347  -76.4462 H         1 UNK         0.0807 
    120 H120      -82.4591   24.0754  -74.7913 H         1 UNK         0.0807 
    121 H121      -82.5188   22.9177  -76.1146 H         1 UNK         0.0807 
    122 H122      -80.8575   25.9143  -75.0684 H         1 UNK         0.2946 
    123 H123      -78.2753   27.0835  -74.1903 H         1 UNK         0.1144 
    124 H124      -77.8560   28.1079  -77.0389 H         1 UNK         0.0793 
    125 H125      -76.6396   27.4102  -75.9766 H         1 UNK         0.0793 
    126 H126      -77.3475   28.9610  -75.5827 H         1 UNK         0.0793 
    127 H127      -79.7488   29.0324  -75.5718 H         1 UNK         0.2896 
@<TRIPOS>BOND
     1    1    2 1    
     2    1   67 1    
     3    1   68 1    
     4    1   69 1    
     5    2    3 2    
     6    2    4 am   BACKBONE|DICT|INTERRES
     7    4    5 1    
     8    4   70 1    
     9    5    6 1    
    10    5   65 1    
    11    5   71 1    
    12    6    7 1    
    13    6   72 1    
    14    6   73 1    
    15    7    8 1    
    16    8    9 1    
    17    8   74 1    
    18    8   75 1    
    19    9   10 ar   
    20    9   14 ar   
    21   10   11 ar   
    22   10   76 1    
    23   11   12 ar   
    24   11   48 1    
    25   12   13 ar   
    26   12   77 1    
    27   13   14 ar   
    28   13   15 1    
    29   14   78 1    
    30   15   16 1    
    31   15   79 1    
    32   15   80 1    
    33   16   17 1    
    34   17   18 1    
    35   17   81 1    
    36   17   82 1    
    37   18   19 1    
    38   18   22 1    
    39   18   83 1    
    40   19   20 am   BACKBONE|DICT|INTERRES
    41   19   21 2    
    42   20   84 1    
    43   20   85 1    
    44   22   23 am   BACKBONE|DICT|INTERRES
    45   22   86 1    
    46   23   24 2    
    47   23   25 1    
    48   25   26 1    
    49   25   27 1    
    50   25   87 1    
    51   26   88 1    
    52   26   89 1    
    53   26   90 1    
    54   27   28 am   BACKBONE|DICT|INTERRES
    55   27   91 1    
    56   28   29 2    
    57   28   30 1    
    58   30   31 1    
    59   30   32 1    
    60   30   92 1    
    61   31   93 1    
    62   31   94 1    
    63   31   95 1    
    64   32   33 am   BACKBONE|DICT|INTERRES
    65   32   96 1    
    66   33   34 2    
    67   33   35 1    
    68   35   36 1    
    69   35   37 1    
    70   35   97 1    
    71   36   98 1    
    72   36   99 1    
    73   36  100 1    
    74   37   38 am   BACKBONE|DICT|INTERRES
    75   37  101 1    
    76   38   39 2    
    77   38   40 1    
    78   40   41 1    
    79   40   42 1    
    80   40  102 1    
    81   41  103 1    
    82   41  104 1    
    83   41  105 1    
    84   42   43 am   BACKBONE|DICT|INTERRES
    85   42  106 1    
    86   43   44 2    
    87   43   45 1    
    88   45   46 1    
    89   45   49 1    
    90   45  107 1    
    91   46   47 1    
    92   46  108 1    
    93   46  109 1    
    94   47   48 1    
    95   48  110 1    
    96   48  111 1    
    97   49   50 am   BACKBONE|DICT|INTERRES
    98   49  112 1    
    99   50   51 2    
   100   50   52 1    
   101   52   53 1    
   102   52   54 1    
   103   52  113 1    
   104   53  114 1    
   105   53  115 1    
   106   53  116 1    
   107   54   55 am   BACKBONE|DICT|INTERRES
   108   54  117 1    
   109   55   56 2    
   110   55   57 1    
   111   57   58 1    
   112   57   59 1    
   113   57  118 1    
   114   58  119 1    
   115   58  120 1    
   116   58  121 1    
   117   59   60 am   BACKBONE|DICT|INTERRES
   118   59  122 1    
   119   60   61 2    
   120   60   62 1    
   121   62   63 1    
   122   62   64 1    
   123   62  123 1    
   124   63  124 1    
   125   63  125 1    
   126   63  126 1    
   127   64   65 am   BACKBONE|DICT|INTERRES
   128   64  127 1    
   129   65   66 2    
@<TRIPOS>SUBSTRUCTURE
     1 UNK         1 GROUP             0       ****    0 ROOT    
