@<TRIPOS>MOLECULE
3R135
127   129    1
SMALL
USER_CHARGES


@<TRIPOS>ATOM
      1 CA        -84.5797   24.9459  -70.9723 C.3       0 UNK        -0.1998 
      2 C         -84.1404   26.0033  -71.9739 C.2       0 UNK         0.4909 
      3 O         -84.9506   26.4505  -72.7861 O.2       0 UNK        -0.5240 
      4 N         -82.8634   26.4071  -71.9210 N.am      1 UNK        -0.4739 
      5 CA        -82.2589   27.3969  -72.8261 C.3       1 UNK         0.0864 
      6 C6        -80.9244   27.9431  -72.2516 C.3       11 UNK        -0.0881 
      7 S7        -80.7492   29.7465  -72.4649 S.3       11 UNK        -0.2682 
      8 C8        -79.7355   30.1878  -71.0140 C.3       11 UNK         0.0289 
      9 C9        -78.2823   29.7775  -71.2053 C.ar      11 UNK        -0.0687 
     10 C10       -77.8743   28.4708  -70.9203 C.ar      11 UNK        -0.0823 
     11 C11       -76.5569   28.0637  -71.1606 C.ar      11 UNK        -0.0830 
     12 C12       -75.6364   28.9982  -71.6438 C.ar      11 UNK        -0.1021 
     13 C13       -76.0156   30.3229  -71.8786 C.ar      11 UNK        -0.0753 
     14 C14       -77.3441   30.7040  -71.6705 C.ar      11 UNK        -0.0933 
     15 C15       -74.9830   31.3435  -72.3325 C.3       11 UNK         0.0166 
     16 S16       -75.1730   31.7568  -74.0911 S.3       11 UNK        -0.2615 
     17 C17       -73.5891   32.6022  -74.4175 C.3       11 UNK        -0.0865 
     18 CA        -72.5998   31.7427  -75.2567 C.3       10 UNK         0.0862 
     19 C         -71.5330   32.6333  -75.9445 C.2       10 UNK         0.5551 
     20 N         -71.8855   33.2822  -77.0453 N.am      10 UNK        -0.7319 
     21 O         -70.4009   32.7621  -75.4791 O.2       10 UNK        -0.5018 
     22 N         -71.9262   30.6993  -74.4693 N.am      10 UNK        -0.4509 
     23 C         -72.3538   29.4453  -74.3018 C.2       10 UNK         0.4899 
     24 O         -73.4546   29.0377  -74.6621 O.2       10 UNK        -0.4839 
     25 CA        -71.3876   28.4780  -73.6103 C.3       9 UNK         0.0222 
     26 CB        -71.3883   28.6710  -72.0822 C.3       9 UNK        -0.1966 
     27 N         -71.7701   27.1071  -73.9462 N.am      9 UNK        -0.4218 
     28 C         -70.9493   26.0504  -73.9458 C.2       9 UNK         0.5020 
     29 O         -69.7623   26.1060  -73.6200 O.2       9 UNK        -0.5274 
     30 CA        -71.5388   24.7020  -74.3873 C.3       8 UNK         0.0270 
     31 CB        -72.2803   24.0215  -73.2237 C.3       8 UNK        -0.1976 
     32 N         -72.4378   24.8406  -75.5350 N.am      8 UNK        -0.4313 
     33 C         -72.0369   24.8499  -76.8145 C.2       8 UNK         0.5041 
     34 O         -70.8584   24.7471  -77.1586 O.2       8 UNK        -0.5577 
     35 CA        -73.1185   24.9667  -77.9057 C.3       7 UNK         0.0284 
     36 CB        -73.4937   23.5731  -78.4356 C.3       7 UNK        -0.1958 
     37 N         -74.3316   25.6435  -77.4491 N.am      7 UNK        -0.4454 
     38 C         -74.4372   26.9604  -77.2307 C.2       7 UNK         0.5089 
     39 O         -73.5517   27.7682  -77.5109 O.2       7 UNK        -0.5125 
     40 CA        -75.7478   27.4516  -76.5814 C.3       6 UNK         0.0408 
     41 CB        -76.7524   27.8833  -77.6601 C.3       6 UNK        -0.1791 
     42 N         -76.3737   26.4655  -75.6894 N.am      6 UNK        -0.4762 
     43 C         -75.8030   25.9469  -74.5889 C.2       6 UNK         0.5007 
     44 O         -74.6681   26.2250  -74.2041 O.2       6 UNK        -0.5032 
     45 CA        -76.6130   24.8789  -73.8333 C.3       5 UNK         0.0783 
     46 C46       -77.7047   25.5203  -72.9331 C.3       11 UNK        -0.0857 
     47 S47       -77.3442   25.3383  -71.1566 S.3       11 UNK        -0.2512 
     48 C48       -76.0881   26.6368  -70.8784 C.3       11 UNK         0.0225 
     49 N         -77.1671   23.9122  -74.7825 N.am      5 UNK        -0.4615 
     50 C         -76.4519   22.9502  -75.3833 C.2       4 UNK         0.5053 
     51 O         -75.2694   22.7222  -75.1308 O.2       4 UNK        -0.5105 
     52 CA        -77.1609   22.1196  -76.4695 C.3       4 UNK         0.0263 
     53 CB        -77.7869   20.8571  -75.8563 C.3       4 UNK        -0.1981 
     54 N         -78.1919   22.8717  -77.1897 N.am      4 UNK        -0.4224 
     55 C         -77.9536   23.9413  -77.9626 C.2       3 UNK         0.4895 
     56 O         -76.8245   24.3524  -78.2242 O.2       3 UNK        -0.5091 
     57 CA        -79.1758   24.7165  -78.4891 C.3       3 UNK         0.0250 
     58 CB        -79.5452   24.2366  -79.9014 C.3       3 UNK        -0.1996 
     59 N         -80.3582   24.6409  -77.6217 N.am      3 UNK        -0.4254 
     60 C         -80.4100   25.0370  -76.3414 C.2       2 UNK         0.5004 
     61 O         -79.4452   25.5023  -75.7280 O.2       2 UNK        -0.5226 
     62 CA        -81.7430   24.7791  -75.6191 C.3       2 UNK         0.0269 
     63 CB        -81.8946   23.2805  -75.3029 C.3       2 UNK        -0.1926 
     64 N         -81.8718   25.5248  -74.3669 N.am      2 UNK        -0.4687 
     65 C         -82.0818   26.8450  -74.2604 C.2       1 UNK         0.5165 
     66 O         -82.1784   27.6024  -75.2274 O.2       1 UNK        -0.5079 
     67 H67       -84.9342   24.0583  -71.4956 H         1 UNK         0.0900 
     68 H68       -85.3945   25.3273  -70.3575 H         1 UNK         0.0900 
     69 H69       -83.7670   24.6473  -70.3103 H         1 UNK         0.0900 
     70 H70       -82.2490   26.0082  -71.2253 H         1 UNK         0.2959 
     71 H71       -82.9721   28.2216  -72.8992 H         1 UNK         0.1079 
     72 H72       -80.8720   27.7382  -71.1815 H         1 UNK         0.0837 
     73 H73       -80.0554   27.4457  -72.6858 H         1 UNK         0.0837 
     74 H74       -79.8007   31.2659  -70.8595 H         1 UNK         0.0685 
     75 H75       -80.1464   29.7296  -70.1132 H         1 UNK         0.0685 
     76 H76       -78.5917   27.7637  -70.5301 H         1 UNK         0.1434 
     77 H77       -74.6157   28.6966  -71.8295 H         1 UNK         0.1329 
     78 H78       -77.6459   31.7221  -71.8755 H         1 UNK         0.1335 
     79 H79       -75.0761   32.2524  -71.7363 H         1 UNK         0.0680 
     80 H80       -73.9759   30.9615  -72.1579 H         1 UNK         0.0680 
     81 H81       -73.1250   32.9217  -73.4828 H         1 UNK         0.1032 
     82 H82       -73.8432   33.5228  -74.9465 H         1 UNK         0.1032 
     83 H83       -73.1530   31.2550  -76.0628 H         1 UNK         0.0461 
     84 H84       -72.8110   33.1864  -77.4340 H         1 UNK         0.3453 
     85 H85       -71.2096   33.8742  -77.5028 H         1 UNK         0.3453 
     86 H86       -70.9926   30.9518  -74.1718 H         1 UNK         0.2984 
     87 H87       -70.3860   28.6735  -73.9994 H         1 UNK         0.0554 
     88 H88       -70.6311   28.0487  -71.6053 H         1 UNK         0.0847 
     89 H89       -72.3517   28.4136  -71.6436 H         1 UNK         0.0847 
     90 H90       -71.1706   29.7053  -71.8130 H         1 UNK         0.0847 
     91 H91       -72.7410   26.9969  -74.2339 H         1 UNK         0.3141 
     92 H92       -70.7075   24.0522  -74.6699 H         1 UNK         0.0743 
     93 H93       -73.0959   24.6350  -72.8409 H         1 UNK         0.0784 
     94 H94       -72.6989   23.0617  -73.5276 H         1 UNK         0.0784 
     95 H95       -71.6016   23.8314  -72.3912 H         1 UNK         0.0784 
     96 H96       -73.4173   24.9948  -75.3257 H         1 UNK         0.3213 
     97 H97       -72.6941   25.5431  -78.7306 H         1 UNK         0.0855 
     98 H98       -73.9325   22.9502  -77.6551 H         1 UNK         0.0814 
     99 H99       -72.6154   23.0500  -78.8162 H         1 UNK         0.0814 
    100 H100      -74.2115   23.6395  -79.2535 H         1 UNK         0.0814 
    101 H101      -75.1601   25.0716  -77.3199 H         1 UNK         0.3105 
    102 H102      -75.5172   28.3284  -75.9758 H         1 UNK         0.0547 
    103 H103      -76.3568   28.7172  -78.2412 H         1 UNK         0.0837 
    104 H104      -76.9628   27.0761  -78.3607 H         1 UNK         0.0837 
    105 H105      -77.6959   28.2111  -77.2233 H         1 UNK         0.0837 
    106 H106      -77.3156   26.1714  -75.9198 H         1 UNK         0.3020 
    107 H107      -75.9029   24.3380  -73.2026 H         1 UNK         0.1245 
    108 H108      -78.6708   25.0409  -73.0996 H         1 UNK         0.0781 
    109 H109      -77.8756   26.5737  -73.1637 H         1 UNK         0.0781 
    110 H110      -75.2107   26.4013  -71.4828 H         1 UNK         0.0836 
    111 H111      -75.7636   26.5836  -69.8385 H         1 UNK         0.0836 
    112 H112      -78.1139   24.0950  -75.0940 H         1 UNK         0.3022 
    113 H113      -76.4036   21.8115  -77.1938 H         1 UNK         0.0747 
    114 H114      -78.2230   20.2170  -76.6235 H         1 UNK         0.0793 
    115 H115      -77.0352   20.2651  -75.3321 H         1 UNK         0.0793 
    116 H116      -78.5692   21.1016  -75.1363 H         1 UNK         0.0793 
    117 H117      -79.1503   22.5935  -77.0402 H         1 UNK         0.3047 
    118 H118      -78.8917   25.7679  -78.5515 H         1 UNK         0.0822 
    119 H119      -80.3422   24.8432  -80.3320 H         1 UNK         0.0807 
    120 H120      -79.8747   23.1968  -79.9027 H         1 UNK         0.0807 
    121 H121      -78.6888   24.3078  -80.5737 H         1 UNK         0.0807 
    122 H122      -81.1924   24.2549  -78.0411 H         1 UNK         0.2946 
    123 H123      -82.5545   25.0883  -76.2822 H         1 UNK         0.1144 
    124 H124      -81.0958   22.9221  -74.6518 H         1 UNK         0.0793 
    125 H125      -81.8715   22.6763  -76.2107 H         1 UNK         0.0793 
    126 H126      -82.8450   23.0745  -74.8098 H         1 UNK         0.0793 
    127 H127      -81.7989   24.9904  -73.5143 H         1 UNK         0.2896 
@<TRIPOS>BOND
     1    1    2 1    
     2    1   67 1    
     3    1   68 1    
     4    1   69 1    
     5    2    3 2    
     6    2    4 am   BACKBONE|DICT|INTERRES
     7    4    5 1    
     8    4   70 1    
     9    5    6 1    
    10    5   65 1    
    11    5   71 1    
    12    6    7 1    
    13    6   72 1    
    14    6   73 1    
    15    7    8 1    
    16    8    9 1    
    17    8   74 1    
    18    8   75 1    
    19    9   10 ar   
    20    9   14 ar   
    21   10   11 ar   
    22   10   76 1    
    23   11   12 ar   
    24   11   48 1    
    25   12   13 ar   
    26   12   77 1    
    27   13   14 ar   
    28   13   15 1    
    29   14   78 1    
    30   15   16 1    
    31   15   79 1    
    32   15   80 1    
    33   16   17 1    
    34   17   18 1    
    35   17   81 1    
    36   17   82 1    
    37   18   19 1    
    38   18   22 1    
    39   18   83 1    
    40   19   20 am   BACKBONE|DICT|INTERRES
    41   19   21 2    
    42   20   84 1    
    43   20   85 1    
    44   22   23 am   BACKBONE|DICT|INTERRES
    45   22   86 1    
    46   23   24 2    
    47   23   25 1    
    48   25   26 1    
    49   25   27 1    
    50   25   87 1    
    51   26   88 1    
    52   26   89 1    
    53   26   90 1    
    54   27   28 am   BACKBONE|DICT|INTERRES
    55   27   91 1    
    56   28   29 2    
    57   28   30 1    
    58   30   31 1    
    59   30   32 1    
    60   30   92 1    
    61   31   93 1    
    62   31   94 1    
    63   31   95 1    
    64   32   33 am   BACKBONE|DICT|INTERRES
    65   32   96 1    
    66   33   34 2    
    67   33   35 1    
    68   35   36 1    
    69   35   37 1    
    70   35   97 1    
    71   36   98 1    
    72   36   99 1    
    73   36  100 1    
    74   37   38 am   BACKBONE|DICT|INTERRES
    75   37  101 1    
    76   38   39 2    
    77   38   40 1    
    78   40   41 1    
    79   40   42 1    
    80   40  102 1    
    81   41  103 1    
    82   41  104 1    
    83   41  105 1    
    84   42   43 am   BACKBONE|DICT|INTERRES
    85   42  106 1    
    86   43   44 2    
    87   43   45 1    
    88   45   46 1    
    89   45   49 1    
    90   45  107 1    
    91   46   47 1    
    92   46  108 1    
    93   46  109 1    
    94   47   48 1    
    95   48  110 1    
    96   48  111 1    
    97   49   50 am   BACKBONE|DICT|INTERRES
    98   49  112 1    
    99   50   51 2    
   100   50   52 1    
   101   52   53 1    
   102   52   54 1    
   103   52  113 1    
   104   53  114 1    
   105   53  115 1    
   106   53  116 1    
   107   54   55 am   BACKBONE|DICT|INTERRES
   108   54  117 1    
   109   55   56 2    
   110   55   57 1    
   111   57   58 1    
   112   57   59 1    
   113   57  118 1    
   114   58  119 1    
   115   58  120 1    
   116   58  121 1    
   117   59   60 am   BACKBONE|DICT|INTERRES
   118   59  122 1    
   119   60   61 2    
   120   60   62 1    
   121   62   63 1    
   122   62   64 1    
   123   62  123 1    
   124   63  124 1    
   125   63  125 1    
   126   63  126 1    
   127   64   65 am   BACKBONE|DICT|INTERRES
   128   64  127 1    
   129   65   66 2    
@<TRIPOS>SUBSTRUCTURE
     1 UNK         1 GROUP             0       ****    0 ROOT    
