@<TRIPOS>MOLECULE
3R135
127   129    1
SMALL
USER_CHARGES


@<TRIPOS>ATOM
      1 CA        -80.6239   23.8141  -71.8784 C.3       0 UNK        -0.1998 
      2 C         -81.5260   24.7642  -72.6511 C.2       0 UNK         0.4909 
      3 O         -82.6442   24.3937  -73.0122 O.2       0 UNK        -0.5240 
      4 N         -81.0539   25.9904  -72.9047 N.am      1 UNK        -0.4739 
      5 CA        -81.7674   27.0294  -73.6548 C.3       1 UNK         0.0864 
      6 C6        -81.3090   28.4498  -73.2357 C.3       11 UNK        -0.0881 
      7 S7        -81.8214   28.8198  -71.5247 S.3       11 UNK        -0.2682 
      8 C8        -80.8118   30.2903  -71.1393 C.3       11 UNK         0.0289 
      9 C9        -79.3283   30.0101  -70.8988 C.ar      11 UNK        -0.0687 
     10 C10       -78.8851   28.8162  -70.3127 C.ar      11 UNK        -0.0823 
     11 C11       -77.5235   28.6008  -70.0839 C.ar      11 UNK        -0.0830 
     12 C12       -76.6065   29.6099  -70.3871 C.ar      11 UNK        -0.1021 
     13 C13       -77.0250   30.7899  -71.0033 C.ar      11 UNK        -0.0753 
     14 C14       -78.3877   30.9860  -71.2497 C.ar      11 UNK        -0.0933 
     15 C15       -76.0020   31.8386  -71.4206 C.3       11 UNK         0.0166 
     16 S16       -75.1001   31.3394  -72.9279 S.3       11 UNK        -0.2615 
     17 C17       -73.8105   30.2304  -72.2570 C.3       11 UNK        -0.0865 
     18 CA        -72.4696   30.3411  -73.0249 C.3       10 UNK         0.0862 
     19 C         -71.3426   29.5842  -72.2741 C.2       10 UNK         0.5551 
     20 N         -70.4657   30.2990  -71.5832 N.am      10 UNK        -0.7319 
     21 O         -71.2887   28.3561  -72.2743 O.2       10 UNK        -0.5018 
     22 N         -72.5977   29.8445  -74.3994 N.am      10 UNK        -0.4509 
     23 C         -71.7692   30.1575  -75.4014 C.2       10 UNK         0.4899 
     24 O         -70.8581   30.9826  -75.3097 O.2       10 UNK        -0.4839 
     25 CA        -72.0117   29.4087  -76.7237 C.3       9 UNK         0.0222 
     26 CB        -71.0422   29.8208  -77.8519 C.3       9 UNK        -0.1966 
     27 N         -72.0163   27.9556  -76.5299 N.am      9 UNK        -0.4218 
     28 C         -71.0097   27.1663  -76.1228 C.2       9 UNK         0.5020 
     29 O         -69.8667   27.5630  -75.8920 O.2       9 UNK        -0.5274 
     30 CA        -71.3272   25.6676  -75.9390 C.3       8 UNK         0.0270 
     31 CB        -71.4723   25.3341  -74.4450 C.3       8 UNK        -0.1976 
     32 N         -72.5393   25.2337  -76.6405 N.am      8 UNK        -0.4313 
     33 C         -72.6716   25.1373  -77.9714 C.2       8 UNK         0.5041 
     34 O         -71.7453   25.2935  -78.7673 O.2       8 UNK        -0.5577 
     35 CA        -74.0923   24.8805  -78.5020 C.3       7 UNK         0.0284 
     36 CB        -74.4323   23.3809  -78.4953 C.3       7 UNK        -0.1958 
     37 N         -75.0911   25.6268  -77.7308 N.am      7 UNK        -0.4454 
     38 C         -75.2940   26.9482  -77.8411 C.2       7 UNK         0.5089 
     39 O         -74.7199   27.6612  -78.6627 O.2       7 UNK        -0.5125 
     40 CA        -76.2730   27.5953  -76.8485 C.3       6 UNK         0.0408 
     41 CB        -77.6766   27.7024  -77.4627 C.3       6 UNK        -0.1791 
     42 N         -76.3475   26.8712  -75.5785 N.am      6 UNK        -0.4762 
     43 C         -75.4150   26.9337  -74.6162 C.2       6 UNK         0.5007 
     44 O         -74.3985   27.6225  -74.6980 O.2       6 UNK        -0.5032 
     45 CA        -75.6535   26.0691  -73.3590 C.3       5 UNK         0.0783 
     46 C46       -76.5585   26.8599  -72.3876 C.3       11 UNK        -0.0857 
     47 S47       -77.0671   25.9612  -70.8773 S.3       11 UNK        -0.2512 
     48 C48       -77.0212   27.2534  -69.5802 C.3       11 UNK         0.0225 
     49 N         -76.2054   24.7498  -73.6760 N.am      5 UNK        -0.4615 
     50 C         -75.6787   23.8543  -74.5196 C.2       4 UNK         0.5053 
     51 O         -74.6046   24.0106  -75.0996 O.2       4 UNK        -0.5105 
     52 CA        -76.5299   22.6106  -74.8347 C.3       4 UNK         0.0263 
     53 CB        -77.4994   22.2265  -73.6948 C.3       4 UNK        -0.1981 
     54 N         -77.2666   22.7512  -76.1002 N.am      4 UNK        -0.4224 
     55 C         -78.0942   23.7497  -76.4506 C.2       3 UNK         0.4895 
     56 O         -78.2935   24.7483  -75.7543 O.2       3 UNK        -0.5091 
     57 CA        -78.7949   23.6498  -77.8232 C.3       3 UNK         0.0250 
     58 CB        -78.9919   22.2003  -78.3224 C.3       3 UNK        -0.1996 
     59 N         -80.0651   24.3914  -77.8263 N.am      3 UNK        -0.4254 
     60 C         -81.1196   24.1637  -77.0285 C.2       2 UNK         0.5004 
     61 O         -81.2398   23.1810  -76.2922 O.2       2 UNK        -0.5226 
     62 CA        -82.2189   25.2340  -77.0235 C.3       2 UNK         0.0269 
     63 CB        -83.5700   24.6487  -77.4684 C.3       2 UNK        -0.1926 
     64 N         -82.3401   25.7555  -75.6636 N.am      2 UNK        -0.4687 
     65 C         -81.6219   26.7716  -75.1687 C.2       1 UNK         0.5165 
     66 O         -80.8628   27.4652  -75.8476 O.2       1 UNK        -0.5079 
     67 H67       -80.4998   22.8839  -72.4321 H         1 UNK         0.0900 
     68 H68       -81.0691   23.5782  -70.9124 H         1 UNK         0.0900 
     69 H69       -79.6368   24.2410  -71.7022 H         1 UNK         0.0900 
     70 H70       -80.1273   26.2410  -72.5926 H         1 UNK         0.2959 
     71 H71       -82.8346   26.9562  -73.4308 H         1 UNK         0.1079 
     72 H72       -81.7498   29.2078  -73.8862 H         1 UNK         0.0837 
     73 H73       -80.2258   28.5529  -73.3280 H         1 UNK         0.0837 
     74 H74       -80.9374   31.0152  -71.9454 H         1 UNK         0.0685 
     75 H75       -81.2171   30.7568  -70.2406 H         1 UNK         0.0685 
     76 H76       -79.5915   28.0395  -70.0554 H         1 UNK         0.1434 
     77 H77       -75.5551   29.4477  -70.1993 H         1 UNK         0.1329 
     78 H78       -78.7176   31.9046  -71.7157 H         1 UNK         0.1335 
     79 H79       -75.3039   32.0310  -70.6047 H         1 UNK         0.0680 
     80 H80       -76.5006   32.7887  -71.6184 H         1 UNK         0.0680 
     81 H81       -73.6521   30.4777  -71.2058 H         1 UNK         0.1032 
     82 H82       -74.1771   29.2035  -72.2785 H         1 UNK         0.1032 
     83 H83       -72.2002   31.3988  -73.0704 H         1 UNK         0.0461 
     84 H84       -69.7371   29.8223  -71.0753 H         1 UNK         0.3453 
     85 H85       -70.5067   31.3065  -71.5726 H         1 UNK         0.3453 
     86 H86       -73.2828   29.1059  -74.5418 H         1 UNK         0.2984 
     87 H87       -73.0196   29.6734  -77.0471 H         1 UNK         0.0554 
     88 H88       -71.2620   29.2869  -78.7765 H         1 UNK         0.0847 
     89 H89       -70.0022   29.6244  -77.5899 H         1 UNK         0.0847 
     90 H90       -71.1257   30.8871  -78.0652 H         1 UNK         0.0847 
     91 H91       -72.9193   27.5142  -76.6318 H         1 UNK         0.3141 
     92 H92       -70.4836   25.1011  -76.3387 H         1 UNK         0.0743 
     93 H93       -71.6501   24.2699  -74.2888 H         1 UNK         0.0784 
     94 H94       -70.5671   25.5976  -73.8961 H         1 UNK         0.0784 
     95 H95       -72.2969   25.8833  -73.9889 H         1 UNK         0.0784 
     96 H96       -73.3358   24.9816  -76.0582 H         1 UNK         0.3213 
     97 H97       -74.1276   25.2271  -79.5375 H         1 UNK         0.0855 
     98 H98       -73.7244   22.8229  -79.1095 H         1 UNK         0.0814 
     99 H99       -75.4265   23.1976  -78.9028 H         1 UNK         0.0814 
    100 H100      -74.3947   22.9539  -77.4933 H         1 UNK         0.0814 
    101 H101      -75.5548   25.1339  -76.9812 H         1 UNK         0.3105 
    102 H102      -75.9178   28.6084  -76.6468 H         1 UNK         0.0547 
    103 H103      -77.6532   28.2684  -78.3949 H         1 UNK         0.0837 
    104 H104      -78.0994   26.7235  -77.6857 H         1 UNK         0.0837 
    105 H105      -78.3635   28.2162  -76.7901 H         1 UNK         0.0837 
    106 H106      -77.1403   26.2437  -75.4550 H         1 UNK         0.3020 
    107 H107      -74.6839   25.9082  -72.8829 H         1 UNK         0.1245 
    108 H108      -77.4724   27.1940  -72.8842 H         1 UNK         0.0781 
    109 H109      -76.0221   27.7619  -72.1035 H         1 UNK         0.0781 
    110 H110      -75.9988   27.3407  -69.2091 H         1 UNK         0.0836 
    111 H111      -77.6251   26.9293  -68.7315 H         1 UNK         0.0836 
    112 H112      -77.1087   24.5475  -73.2750 H         1 UNK         0.3022 
    113 H113      -75.8280   21.7854  -74.9657 H         1 UNK         0.0747 
    114 H114      -77.9631   21.2593  -73.8889 H         1 UNK         0.0793 
    115 H115      -76.9774   22.1452  -72.7401 H         1 UNK         0.0793 
    116 H116      -78.3031   22.9528  -73.5755 H         1 UNK         0.0793 
    117 H117      -77.1476   21.9904  -76.7541 H         1 UNK         0.3047 
    118 H118      -78.1434   24.1605  -78.5338 H         1 UNK         0.0822 
    119 H119      -79.5177   21.5839  -77.5920 H         1 UNK         0.0807 
    120 H120      -78.0377   21.7182  -78.5374 H         1 UNK         0.0807 
    121 H121      -79.5689   22.1792  -79.2471 H         1 UNK         0.0807 
    122 H122      -80.0639   25.2410  -78.3726 H         1 UNK         0.2946 
    123 H123      -81.9519   26.0424  -77.7085 H         1 UNK         0.1144 
    124 H124      -84.3497   25.4105  -77.4703 H         1 UNK         0.0793 
    125 H125      -83.5054   24.2472  -78.4805 H         1 UNK         0.0793 
    126 H126      -83.8961   23.8378  -76.8156 H         1 UNK         0.0793 
    127 H127      -82.8336   25.1686  -74.9995 H         1 UNK         0.2896 
@<TRIPOS>BOND
     1    1    2 1    
     2    1   67 1    
     3    1   68 1    
     4    1   69 1    
     5    2    3 2    
     6    2    4 am   BACKBONE|DICT|INTERRES
     7    4    5 1    
     8    4   70 1    
     9    5    6 1    
    10    5   65 1    
    11    5   71 1    
    12    6    7 1    
    13    6   72 1    
    14    6   73 1    
    15    7    8 1    
    16    8    9 1    
    17    8   74 1    
    18    8   75 1    
    19    9   10 ar   
    20    9   14 ar   
    21   10   11 ar   
    22   10   76 1    
    23   11   12 ar   
    24   11   48 1    
    25   12   13 ar   
    26   12   77 1    
    27   13   14 ar   
    28   13   15 1    
    29   14   78 1    
    30   15   16 1    
    31   15   79 1    
    32   15   80 1    
    33   16   17 1    
    34   17   18 1    
    35   17   81 1    
    36   17   82 1    
    37   18   19 1    
    38   18   22 1    
    39   18   83 1    
    40   19   20 am   BACKBONE|DICT|INTERRES
    41   19   21 2    
    42   20   84 1    
    43   20   85 1    
    44   22   23 am   BACKBONE|DICT|INTERRES
    45   22   86 1    
    46   23   24 2    
    47   23   25 1    
    48   25   26 1    
    49   25   27 1    
    50   25   87 1    
    51   26   88 1    
    52   26   89 1    
    53   26   90 1    
    54   27   28 am   BACKBONE|DICT|INTERRES
    55   27   91 1    
    56   28   29 2    
    57   28   30 1    
    58   30   31 1    
    59   30   32 1    
    60   30   92 1    
    61   31   93 1    
    62   31   94 1    
    63   31   95 1    
    64   32   33 am   BACKBONE|DICT|INTERRES
    65   32   96 1    
    66   33   34 2    
    67   33   35 1    
    68   35   36 1    
    69   35   37 1    
    70   35   97 1    
    71   36   98 1    
    72   36   99 1    
    73   36  100 1    
    74   37   38 am   BACKBONE|DICT|INTERRES
    75   37  101 1    
    76   38   39 2    
    77   38   40 1    
    78   40   41 1    
    79   40   42 1    
    80   40  102 1    
    81   41  103 1    
    82   41  104 1    
    83   41  105 1    
    84   42   43 am   BACKBONE|DICT|INTERRES
    85   42  106 1    
    86   43   44 2    
    87   43   45 1    
    88   45   46 1    
    89   45   49 1    
    90   45  107 1    
    91   46   47 1    
    92   46  108 1    
    93   46  109 1    
    94   47   48 1    
    95   48  110 1    
    96   48  111 1    
    97   49   50 am   BACKBONE|DICT|INTERRES
    98   49  112 1    
    99   50   51 2    
   100   50   52 1    
   101   52   53 1    
   102   52   54 1    
   103   52  113 1    
   104   53  114 1    
   105   53  115 1    
   106   53  116 1    
   107   54   55 am   BACKBONE|DICT|INTERRES
   108   54  117 1    
   109   55   56 2    
   110   55   57 1    
   111   57   58 1    
   112   57   59 1    
   113   57  118 1    
   114   58  119 1    
   115   58  120 1    
   116   58  121 1    
   117   59   60 am   BACKBONE|DICT|INTERRES
   118   59  122 1    
   119   60   61 2    
   120   60   62 1    
   121   62   63 1    
   122   62   64 1    
   123   62  123 1    
   124   63  124 1    
   125   63  125 1    
   126   63  126 1    
   127   64   65 am   BACKBONE|DICT|INTERRES
   128   64  127 1    
   129   65   66 2    
@<TRIPOS>SUBSTRUCTURE
     1 UNK         1 GROUP             0       ****    0 ROOT    
