@<TRIPOS>MOLECULE
3R135
127   129    1
SMALL
USER_CHARGES


@<TRIPOS>ATOM
      1 CA        -79.5213   21.6720  -72.2485 C.3       0 UNK        -0.1998 
      2 C         -80.4693   22.7849  -72.6668 C.2       0 UNK         0.4909 
      3 O         -81.1385   22.6674  -73.6939 O.2       0 UNK        -0.5240 
      4 N         -80.5226   23.8733  -71.8888 N.am      1 UNK        -0.4739 
      5 CA        -81.3201   25.0746  -72.1581 C.3       1 UNK         0.0864 
      6 C6        -81.3056   26.0744  -70.9711 C.3       11 UNK        -0.0881 
      7 S7        -79.6583   26.3679  -70.2274 S.3       11 UNK        -0.2682 
      8 C8        -79.7836   28.1087  -69.7141 C.3       11 UNK         0.0289 
      9 C9        -79.0133   29.0313  -70.6468 C.ar      11 UNK        -0.0687 
     10 C10       -79.6015   29.5139  -71.8210 C.ar      11 UNK        -0.0823 
     11 C11       -78.9066   30.4028  -72.6498 C.ar      11 UNK        -0.0830 
     12 C12       -77.6129   30.7995  -72.2978 C.ar      11 UNK        -0.1021 
     13 C13       -77.0118   30.3153  -71.1330 C.ar      11 UNK        -0.0753 
     14 C14       -77.7161   29.4315  -70.3118 C.ar      11 UNK        -0.0933 
     15 C15       -75.6127   30.7694  -70.7517 C.3       11 UNK         0.0166 
     16 S16       -74.3734   29.4987  -71.1476 S.3       11 UNK        -0.2615 
     17 C17       -72.8640   30.5270  -71.2497 C.3       11 UNK        -0.0865 
     18 CA        -71.7275   29.9014  -72.1052 C.3       10 UNK         0.0862 
     19 C         -70.8999   28.8125  -71.3615 C.2       10 UNK         0.5551 
     20 N         -70.3854   27.7962  -72.0457 N.am      10 UNK        -0.7319 
     21 O         -70.6946   28.8978  -70.1531 O.2       10 UNK        -0.5018 
     22 N         -72.2252   29.4386  -73.4071 N.am      10 UNK        -0.4509 
     23 C         -71.9852   29.9885  -74.5994 C.2       10 UNK         0.4899 
     24 O         -71.3505   31.0321  -74.7618 O.2       10 UNK        -0.4839 
     25 CA        -72.5527   29.2248  -75.8148 C.3       9 UNK         0.0222 
     26 CB        -71.8323   29.5807  -77.1315 C.3       9 UNK        -0.1966 
     27 N         -72.5950   27.7639  -75.6406 N.am      9 UNK        -0.4218 
     28 C         -71.5686   26.9507  -75.3397 C.2       9 UNK         0.5020 
     29 O         -70.4305   27.3397  -75.0741 O.2       9 UNK        -0.5274 
     30 CA        -71.8603   25.4451  -75.3103 C.3       8 UNK         0.0270 
     31 CB        -72.3205   25.0008  -73.9107 C.3       8 UNK        -0.1976 
     32 N         -72.8570   25.0683  -76.3164 N.am      8 UNK        -0.4313 
     33 C         -72.5496   24.7601  -77.5830 C.2       8 UNK         0.5041 
     34 O         -71.4011   24.7663  -78.0293 O.2       8 UNK        -0.5577 
     35 CA        -73.6996   24.3349  -78.5050 C.3       7 UNK         0.0284 
     36 CB        -74.0768   22.8675  -78.2420 C.3       7 UNK        -0.1958 
     37 N         -74.8924   25.1798  -78.4007 N.am      7 UNK        -0.4454 
     38 C         -75.0286   26.3532  -79.0352 C.2       7 UNK         0.5089 
     39 O         -74.1089   26.9228  -79.6236 O.2       7 UNK        -0.5125 
     40 CA        -76.4396   26.9674  -79.0790 C.3       6 UNK         0.0408 
     41 CB        -77.4010   26.0838  -79.8918 C.3       6 UNK        -0.1791 
     42 N         -77.0007   27.2009  -77.7518 N.am      6 UNK        -0.4762 
     43 C         -76.6330   28.1960  -76.9322 C.2       6 UNK         0.5007 
     44 O         -75.8101   29.0611  -77.2311 O.2       6 UNK        -0.5032 
     45 CA        -77.2714   28.1985  -75.5250 C.3       5 UNK         0.0783 
     46 C46       -78.6761   28.8541  -75.5460 C.3       11 UNK        -0.0857 
     47 S47       -78.6038   30.6690  -75.4195 S.3       11 UNK        -0.2512 
     48 C48       -79.5684   30.9703  -73.9008 C.3       11 UNK         0.0225 
     49 N         -77.3230   26.8567  -74.9365 N.am      5 UNK        -0.4615 
     50 C         -76.2819   26.0286  -74.7817 C.2       4 UNK         0.5053 
     51 O         -75.1218   26.3182  -75.0730 O.2       4 UNK        -0.5105 
     52 CA        -76.6037   24.6091  -74.2918 C.3       4 UNK         0.0263 
     53 CB        -76.7739   24.5756  -72.7647 C.3       4 UNK        -0.1981 
     54 N         -77.8007   24.0758  -74.9484 N.am      4 UNK        -0.4224 
     55 C         -77.8567   23.7368  -76.2455 C.2       3 UNK         0.4895 
     56 O         -76.8896   23.7748  -77.0033 O.2       3 UNK        -0.5091 
     57 CA        -79.2279   23.3393  -76.8120 C.3       3 UNK         0.0250 
     58 CB        -79.5124   21.8498  -76.5654 C.3       3 UNK        -0.1996 
     59 N         -80.3094   24.1639  -76.2681 N.am      3 UNK        -0.4254 
     60 C         -80.4717   25.4620  -76.5711 C.2       2 UNK         0.5004 
     61 O         -79.7605   26.0660  -77.3739 O.2       2 UNK        -0.5226 
     62 CA        -81.5790   26.2337  -75.8287 C.3       2 UNK         0.0269 
     63 CB        -82.8907   26.1907  -76.6278 C.3       2 UNK        -0.1926 
     64 N         -81.8233   25.7564  -74.4635 N.am      2 UNK        -0.4687 
     65 C         -80.9026   25.7296  -73.4896 C.2       1 UNK         0.5165 
     66 O         -79.7511   26.1402  -73.6357 O.2       1 UNK        -0.5079 
     67 H67       -79.0269   21.8926  -71.3026 H         1 UNK         0.0900 
     68 H68       -78.7530   21.5273  -73.0075 H         1 UNK         0.0900 
     69 H69       -80.0689   20.7369  -72.1347 H         1 UNK         0.0900 
     70 H70       -79.9274   23.9393  -71.0747 H         1 UNK         0.2959 
     71 H71       -82.3530   24.7379  -72.2725 H         1 UNK         0.1079 
     72 H72       -81.7567   27.0227  -71.2693 H         1 UNK         0.0837 
     73 H73       -81.9463   25.6891  -70.1764 H         1 UNK         0.0837 
     74 H74       -80.8271   28.4202  -69.6512 H         1 UNK         0.0685 
     75 H75       -79.3900   28.1948  -68.7001 H         1 UNK         0.0685 
     76 H76       -80.6055   29.2067  -72.0790 H         1 UNK         0.1434 
     77 H77       -77.0758   31.4914  -72.9324 H         1 UNK         0.1329 
     78 H78       -77.2541   29.0613  -69.4067 H         1 UNK         0.1335 
     79 H79       -75.3752   31.6992  -71.2708 H         1 UNK         0.0680 
     80 H80       -75.5698   30.9941  -69.6849 H         1 UNK         0.0680 
     81 H81       -72.5214   30.7651  -70.2411 H         1 UNK         0.1032 
     82 H82       -73.1293   31.4858  -71.6969 H         1 UNK         0.1032 
     83 H83       -70.9979   30.6949  -72.2753 H         1 UNK         0.0461 
     84 H84       -69.8408   27.1039  -71.5567 H         1 UNK         0.3453 
     85 H85       -70.4675   27.7540  -73.0548 H         1 UNK         0.3453 
     86 H86       -72.7601   28.5828  -73.3749 H         1 UNK         0.2984 
     87 H87       -73.5888   29.5494  -75.9067 H         1 UNK         0.0554 
     88 H88       -72.2791   29.0588  -77.9783 H         1 UNK         0.0847 
     89 H89       -70.7742   29.3193  -77.0953 H         1 UNK         0.0847 
     90 H90       -71.8988   30.6490  -77.3410 H         1 UNK         0.0847 
     91 H91       -73.5104   27.3345  -75.7407 H         1 UNK         0.3141 
     92 H92       -70.9244   24.9238  -75.5240 H         1 UNK         0.0743 
     93 H93       -73.2007   25.5446  -73.5693 H         1 UNK         0.0784 
     94 H94       -72.5543   23.9363  -73.8890 H         1 UNK         0.0784 
     95 H95       -71.5342   25.1731  -73.1747 H         1 UNK         0.0784 
     96 H96       -73.8310   25.1287  -76.0386 H         1 UNK         0.3213 
     97 H97       -73.3318   24.3950  -79.5322 H         1 UNK         0.0855 
     98 H98       -74.4301   22.7154  -77.2215 H         1 UNK         0.0814 
     99 H99       -73.2173   22.2121  -78.3888 H         1 UNK         0.0814 
    100 H100      -74.8609   22.5309  -78.9205 H         1 UNK         0.0814 
    101 H101      -75.6947   24.7729  -77.9206 H         1 UNK         0.3105 
    102 H102      -76.3666   27.9293  -79.5912 H         1 UNK         0.0547 
    103 H103      -77.0066   25.8919  -80.8905 H         1 UNK         0.0837 
    104 H104      -77.5704   25.1176  -79.4154 H         1 UNK         0.0837 
    105 H105      -78.3713   26.5658  -80.0135 H         1 UNK         0.0837 
    106 H106      -77.7321   26.5677  -77.4454 H         1 UNK         0.3020 
    107 H107      -76.6181   28.7828  -74.8728 H         1 UNK         0.1245 
    108 H108      -79.2730   28.4851  -74.7119 H         1 UNK         0.0781 
    109 H109      -79.2365   28.5852  -76.4431 H         1 UNK         0.0781 
    110 H110      -80.5721   30.5627  -74.0325 H         1 UNK         0.0836 
    111 H111      -79.6914   32.0466  -73.7729 H         1 UNK         0.0836 
    112 H112      -78.2324   26.5481  -74.5997 H         1 UNK         0.3022 
    113 H113      -75.7589   23.9674  -74.5515 H         1 UNK         0.0747 
    114 H114      -76.9497   23.5614  -72.4069 H         1 UNK         0.0793 
    115 H115      -75.8750   24.9427  -72.2674 H         1 UNK         0.0793 
    116 H116      -77.6039   25.1986  -72.4302 H         1 UNK         0.0793 
    117 H117      -78.6592   24.0955  -74.4173 H         1 UNK         0.3047 
    118 H118      -79.1962   23.4979  -77.8924 H         1 UNK         0.0822 
    119 H119      -80.4764   21.5553  -76.9805 H         1 UNK         0.0807 
    120 H120      -79.5148   21.6032  -75.5041 H         1 UNK         0.0807 
    121 H121      -78.7520   21.2277  -77.0395 H         1 UNK         0.0807 
    122 H122      -80.9049   23.7397  -75.5650 H         1 UNK         0.2946 
    123 H123      -81.2568   27.2744  -75.7603 H         1 UNK         0.1144 
    124 H124      -82.7411   26.5629  -77.6426 H         1 UNK         0.0793 
    125 H125      -83.6577   26.8135  -76.1670 H         1 UNK         0.0793 
    126 H126      -83.2828   25.1760  -76.7074 H         1 UNK         0.0793 
    127 H127      -82.7390   25.3709  -74.2803 H         1 UNK         0.2896 
@<TRIPOS>BOND
     1    1    2 1    
     2    1   67 1    
     3    1   68 1    
     4    1   69 1    
     5    2    3 2    
     6    2    4 am   BACKBONE|DICT|INTERRES
     7    4    5 1    
     8    4   70 1    
     9    5    6 1    
    10    5   65 1    
    11    5   71 1    
    12    6    7 1    
    13    6   72 1    
    14    6   73 1    
    15    7    8 1    
    16    8    9 1    
    17    8   74 1    
    18    8   75 1    
    19    9   10 ar   
    20    9   14 ar   
    21   10   11 ar   
    22   10   76 1    
    23   11   12 ar   
    24   11   48 1    
    25   12   13 ar   
    26   12   77 1    
    27   13   14 ar   
    28   13   15 1    
    29   14   78 1    
    30   15   16 1    
    31   15   79 1    
    32   15   80 1    
    33   16   17 1    
    34   17   18 1    
    35   17   81 1    
    36   17   82 1    
    37   18   19 1    
    38   18   22 1    
    39   18   83 1    
    40   19   20 am   BACKBONE|DICT|INTERRES
    41   19   21 2    
    42   20   84 1    
    43   20   85 1    
    44   22   23 am   BACKBONE|DICT|INTERRES
    45   22   86 1    
    46   23   24 2    
    47   23   25 1    
    48   25   26 1    
    49   25   27 1    
    50   25   87 1    
    51   26   88 1    
    52   26   89 1    
    53   26   90 1    
    54   27   28 am   BACKBONE|DICT|INTERRES
    55   27   91 1    
    56   28   29 2    
    57   28   30 1    
    58   30   31 1    
    59   30   32 1    
    60   30   92 1    
    61   31   93 1    
    62   31   94 1    
    63   31   95 1    
    64   32   33 am   BACKBONE|DICT|INTERRES
    65   32   96 1    
    66   33   34 2    
    67   33   35 1    
    68   35   36 1    
    69   35   37 1    
    70   35   97 1    
    71   36   98 1    
    72   36   99 1    
    73   36  100 1    
    74   37   38 am   BACKBONE|DICT|INTERRES
    75   37  101 1    
    76   38   39 2    
    77   38   40 1    
    78   40   41 1    
    79   40   42 1    
    80   40  102 1    
    81   41  103 1    
    82   41  104 1    
    83   41  105 1    
    84   42   43 am   BACKBONE|DICT|INTERRES
    85   42  106 1    
    86   43   44 2    
    87   43   45 1    
    88   45   46 1    
    89   45   49 1    
    90   45  107 1    
    91   46   47 1    
    92   46  108 1    
    93   46  109 1    
    94   47   48 1    
    95   48  110 1    
    96   48  111 1    
    97   49   50 am   BACKBONE|DICT|INTERRES
    98   49  112 1    
    99   50   51 2    
   100   50   52 1    
   101   52   53 1    
   102   52   54 1    
   103   52  113 1    
   104   53  114 1    
   105   53  115 1    
   106   53  116 1    
   107   54   55 am   BACKBONE|DICT|INTERRES
   108   54  117 1    
   109   55   56 2    
   110   55   57 1    
   111   57   58 1    
   112   57   59 1    
   113   57  118 1    
   114   58  119 1    
   115   58  120 1    
   116   58  121 1    
   117   59   60 am   BACKBONE|DICT|INTERRES
   118   59  122 1    
   119   60   61 2    
   120   60   62 1    
   121   62   63 1    
   122   62   64 1    
   123   62  123 1    
   124   63  124 1    
   125   63  125 1    
   126   63  126 1    
   127   64   65 am   BACKBONE|DICT|INTERRES
   128   64  127 1    
   129   65   66 2    
@<TRIPOS>SUBSTRUCTURE
     1 UNK         1 GROUP             0       ****    0 ROOT    
