@<TRIPOS>MOLECULE
3R135
127   129    1
SMALL
USER_CHARGES


@<TRIPOS>ATOM
      1 CA        -85.9168   27.9756  -73.0247 C.3       0 UNK        -0.1998 
      2 C         -84.7916   28.2394  -74.0139 C.2       0 UNK         0.4909 
      3 O         -85.0348   28.2844  -75.2201 O.2       0 UNK        -0.5240 
      4 N         -83.5635   28.4189  -73.5111 N.am      1 UNK        -0.4739 
      5 CA        -82.3446   28.6373  -74.3013 C.3       1 UNK         0.0864 
      6 C6        -81.1733   29.1777  -73.4391 C.3       11 UNK        -0.0881 
      7 S7        -80.9425   28.3042  -71.8493 S.3       11 UNK        -0.2682 
      8 C8        -79.7484   29.3995  -71.0185 C.3       11 UNK         0.0289 
      9 C9        -78.3358   29.1270  -71.5070 C.ar      11 UNK        -0.0687 
     10 C10       -77.6024   28.0776  -70.9485 C.ar      11 UNK        -0.0823 
     11 C11       -76.3322   27.7572  -71.4368 C.ar      11 UNK        -0.0830 
     12 C12       -75.7866   28.5252  -72.4706 C.ar      11 UNK        -0.1021 
     13 C13       -76.4928   29.6053  -73.0108 C.ar      11 UNK        -0.0753 
     14 C14       -77.7709   29.8987  -72.5266 C.ar      11 UNK        -0.0933 
     15 C15       -75.8996   30.4278  -74.1481 C.3       11 UNK         0.0166 
     16 S16       -74.9401   31.8592  -73.5585 S.3       11 UNK        -0.2615 
     17 C17       -73.3884   31.0616  -73.0219 C.3       11 UNK        -0.0865 
     18 CA        -72.4602   30.6590  -74.2126 C.3       10 UNK         0.0862 
     19 C         -71.3690   31.7255  -74.5401 C.2       10 UNK         0.5551 
     20 N         -70.1555   31.3429  -74.9232 N.am      10 UNK        -0.7319 
     21 O         -71.6303   32.9241  -74.4740 O.2       10 UNK        -0.5018 
     22 N         -71.9544   29.2811  -74.1025 N.am      10 UNK        -0.4509 
     23 C         -71.1970   28.8012  -73.1041 C.2       10 UNK         0.4899 
     24 O         -70.9288   29.4320  -72.0815 O.2       10 UNK        -0.4839 
     25 CA        -70.6155   27.3835  -73.2735 C.3       9 UNK         0.0222 
     26 CB        -71.4910   26.3592  -72.5334 C.3       9 UNK        -0.1966 
     27 N         -70.4565   26.9639  -74.6701 N.am      9 UNK        -0.4218 
     28 C         -69.7034   27.5846  -75.5912 C.2       9 UNK         0.5020 
     29 O         -68.9838   28.5538  -75.3445 O.2       9 UNK        -0.5274 
     30 CA        -69.8017   27.0763  -77.0433 C.3       8 UNK         0.0270 
     31 CB        -68.6164   26.1521  -77.3668 C.3       8 UNK        -0.1976 
     32 N         -71.0568   26.3894  -77.3829 N.am      8 UNK        -0.4313 
     33 C         -72.2918   26.8990  -77.2633 C.2       8 UNK         0.5041 
     34 O         -72.5189   28.0168  -76.7902 O.2       8 UNK        -0.5577 
     35 CA        -73.4693   26.0146  -77.7137 C.3       7 UNK         0.0284 
     36 CB        -73.1402   24.5086  -77.7713 C.3       7 UNK        -0.1958 
     37 N         -74.5620   26.2198  -76.7723 N.am      7 UNK        -0.4454 
     38 C         -75.7717   26.7108  -77.0430 C.2       7 UNK         0.5089 
     39 O         -76.2005   26.9157  -78.1801 O.2       7 UNK        -0.5125 
     40 CA        -76.6266   27.0515  -75.8090 C.3       6 UNK         0.0408 
     41 CB        -77.9544   27.7456  -76.1591 C.3       6 UNK        -0.1791 
     42 N         -76.8949   25.9011  -74.9454 N.am      6 UNK        -0.4762 
     43 C         -76.0216   25.3162  -74.1108 C.2       6 UNK         0.5007 
     44 O         -74.8299   25.6227  -74.0448 O.2       6 UNK        -0.5032 
     45 CA        -76.5736   24.2018  -73.2064 C.3       5 UNK         0.0783 
     46 C46       -77.4358   24.7872  -72.0573 C.3       11 UNK        -0.0857 
     47 S47       -76.5010   25.0804  -70.5158 S.3       11 UNK        -0.2512 
     48 C48       -75.5308   26.5945  -70.8561 C.3       11 UNK         0.0225 
     49 N         -77.3346   23.2597  -74.0256 N.am      5 UNK        -0.4615 
     50 C         -76.8701   22.0864  -74.4746 C.2       4 UNK         0.5053 
     51 O         -75.7835   21.6072  -74.1502 O.2       4 UNK        -0.5105 
     52 CA        -77.7621   21.3157  -75.4670 C.3       4 UNK         0.0263 
     53 CB        -78.6539   20.3108  -74.7202 C.3       4 UNK        -0.1981 
     54 N         -78.6036   22.1951  -76.2827 N.am      4 UNK        -0.4224 
     55 C         -78.1413   23.0825  -77.1754 C.2       3 UNK         0.4895 
     56 O         -76.9585   23.1648  -77.5057 O.2       3 UNK        -0.5091 
     57 CA        -79.1584   24.0622  -77.7892 C.3       3 UNK         0.0250 
     58 CB        -79.5165   23.6313  -79.2208 C.3       3 UNK        -0.1996 
     59 N         -80.3985   24.2486  -77.0212 N.am      3 UNK        -0.4254 
     60 C         -80.4910   24.7118  -75.7657 C.2       2 UNK         0.5004 
     61 O         -79.5205   24.9386  -75.0397 O.2       2 UNK        -0.5226 
     62 CA        -81.9120   24.9008  -75.2089 C.3       2 UNK         0.0269 
     63 CB        -82.2403   23.7825  -74.2064 C.3       2 UNK        -0.1926 
     64 N         -82.1114   26.1996  -74.5579 N.am      2 UNK        -0.4687 
     65 C         -81.9440   27.4001  -75.1346 C.2       1 UNK         0.5165 
     66 O         -81.5499   27.5579  -76.2912 O.2       1 UNK        -0.5079 
     67 H67       -85.5613   27.9712  -71.9944 H         1 UNK         0.0900 
     68 H68       -86.3766   27.0091  -73.2289 H         1 UNK         0.0900 
     69 H69       -86.6838   28.7443  -73.1152 H         1 UNK         0.0900 
     70 H70       -83.4184   28.3728  -72.5117 H         1 UNK         0.2959 
     71 H71       -82.5817   29.4143  -75.0321 H         1 UNK         0.1079 
     72 H72       -80.2356   29.1652  -73.9972 H         1 UNK         0.0837 
     73 H73       -81.3641   30.2280  -73.2133 H         1 UNK         0.0837 
     74 H74       -80.0211   30.4443  -71.1749 H         1 UNK         0.0685 
     75 H75       -79.8032   29.2284  -69.9424 H         1 UNK         0.0685 
     76 H76       -78.0386   27.4873  -70.1543 H         1 UNK         0.1434 
     77 H77       -74.8108   28.2747  -72.8640 H         1 UNK         0.1329 
     78 H78       -78.3328   30.7169  -72.9559 H         1 UNK         0.1335 
     79 H79       -76.7007   30.7882  -74.7952 H         1 UNK         0.0680 
     80 H80       -75.2627   29.8079  -74.7785 H         1 UNK         0.0680 
     81 H81       -73.6463   30.1992  -72.4100 H         1 UNK         0.1032 
     82 H82       -72.8734   31.7330  -72.3323 H         1 UNK         0.1032 
     83 H83       -73.0637   30.6259  -75.1197 H         1 UNK         0.0461 
     84 H84       -69.4667   32.0452  -75.1405 H         1 UNK         0.3453 
     85 H85       -69.9105   30.3619  -74.9915 H         1 UNK         0.3453 
     86 H86       -72.1001   28.7066  -74.9280 H         1 UNK         0.2984 
     87 H87       -69.6238   27.3811  -72.8167 H         1 UNK         0.0554 
     88 H88       -71.0524   25.3618  -72.5640 H         1 UNK         0.0847 
     89 H89       -72.4915   26.3008  -72.9625 H         1 UNK         0.0847 
     90 H90       -71.6044   26.6287  -71.4823 H         1 UNK         0.0847 
     91 H91       -71.0141   26.1791  -74.9727 H         1 UNK         0.3141 
     92 H92       -69.7344   27.9543  -77.6890 H         1 UNK         0.0743 
     93 H93       -68.6477   25.2339  -76.7788 H         1 UNK         0.0784 
     94 H94       -68.6018   25.8770  -78.4217 H         1 UNK         0.0784 
     95 H95       -67.6667   26.6443  -77.1512 H         1 UNK         0.0784 
     96 H96       -70.9663   25.4610  -77.7706 H         1 UNK         0.3213 
     97 H97       -73.7592   26.3501  -78.7115 H         1 UNK         0.0855 
     98 H98       -72.7590   24.1368  -76.8190 H         1 UNK         0.0814 
     99 H99       -72.4022   24.2870  -78.5430 H         1 UNK         0.0814 
    100 H100      -74.0309   23.9274  -78.0137 H         1 UNK         0.0814 
    101 H101      -74.3396   26.0888  -75.7881 H         1 UNK         0.3105 
    102 H102      -76.0400   27.7590  -75.2268 H         1 UNK         0.0547 
    103 H103      -77.7819   28.6485  -76.7458 H         1 UNK         0.0837 
    104 H104      -78.6131   27.1001  -76.7389 H         1 UNK         0.0837 
    105 H105      -78.4899   28.0431  -75.2580 H         1 UNK         0.0837 
    106 H106      -77.8574   25.5662  -74.9497 H         1 UNK         0.3020 
    107 H107      -75.7160   23.6846  -72.7695 H         1 UNK         0.1245 
    108 H108      -78.2149   24.0722  -71.7877 H         1 UNK         0.0781 
    109 H109      -77.9808   25.6851  -72.3552 H         1 UNK         0.0781 
    110 H110      -74.7025   26.3316  -71.5144 H         1 UNK         0.0836 
    111 H111      -75.0744   26.9263  -69.9228 H         1 UNK         0.0836 
    112 H112      -78.2243   23.6008  -74.3750 H         1 UNK         0.3022 
    113 H113      -77.1045   20.7608  -76.1396 H         1 UNK         0.0747 
    114 H114      -79.2370   19.7046  -75.4139 H         1 UNK         0.0793 
    115 H115      -78.0516   19.6257  -74.1217 H         1 UNK         0.0793 
    116 H116      -79.3480   20.8105  -74.0432 H         1 UNK         0.0793 
    117 H117      -79.5945   22.1857  -76.0916 H         1 UNK         0.3047 
    118 H118      -78.6608   25.0319  -77.8444 H         1 UNK         0.0822 
    119 H119      -80.1434   24.3739  -79.7149 H         1 UNK         0.0807 
    120 H120      -80.0466   22.6780  -79.2352 H         1 UNK         0.0807 
    121 H121      -78.6189   23.5142  -79.8301 H         1 UNK         0.0807 
    122 H122      -81.2545   24.0687  -77.5266 H         1 UNK         0.2946 
    123 H123      -82.6234   24.8448  -76.0357 H         1 UNK         0.1144 
    124 H124      -82.1315   22.7987  -74.6651 H         1 UNK         0.0793 
    125 H125      -83.2671   23.8581  -73.8480 H         1 UNK         0.0793 
    126 H126      -81.5787   23.8130  -73.3394 H         1 UNK         0.0793 
    127 H127      -82.4152   26.1826  -73.5955 H         1 UNK         0.2896 
@<TRIPOS>BOND
     1    1    2 1    
     2    1   67 1    
     3    1   68 1    
     4    1   69 1    
     5    2    3 2    
     6    2    4 am   BACKBONE|DICT|INTERRES
     7    4    5 1    
     8    4   70 1    
     9    5    6 1    
    10    5   65 1    
    11    5   71 1    
    12    6    7 1    
    13    6   72 1    
    14    6   73 1    
    15    7    8 1    
    16    8    9 1    
    17    8   74 1    
    18    8   75 1    
    19    9   10 ar   
    20    9   14 ar   
    21   10   11 ar   
    22   10   76 1    
    23   11   12 ar   
    24   11   48 1    
    25   12   13 ar   
    26   12   77 1    
    27   13   14 ar   
    28   13   15 1    
    29   14   78 1    
    30   15   16 1    
    31   15   79 1    
    32   15   80 1    
    33   16   17 1    
    34   17   18 1    
    35   17   81 1    
    36   17   82 1    
    37   18   19 1    
    38   18   22 1    
    39   18   83 1    
    40   19   20 am   BACKBONE|DICT|INTERRES
    41   19   21 2    
    42   20   84 1    
    43   20   85 1    
    44   22   23 am   BACKBONE|DICT|INTERRES
    45   22   86 1    
    46   23   24 2    
    47   23   25 1    
    48   25   26 1    
    49   25   27 1    
    50   25   87 1    
    51   26   88 1    
    52   26   89 1    
    53   26   90 1    
    54   27   28 am   BACKBONE|DICT|INTERRES
    55   27   91 1    
    56   28   29 2    
    57   28   30 1    
    58   30   31 1    
    59   30   32 1    
    60   30   92 1    
    61   31   93 1    
    62   31   94 1    
    63   31   95 1    
    64   32   33 am   BACKBONE|DICT|INTERRES
    65   32   96 1    
    66   33   34 2    
    67   33   35 1    
    68   35   36 1    
    69   35   37 1    
    70   35   97 1    
    71   36   98 1    
    72   36   99 1    
    73   36  100 1    
    74   37   38 am   BACKBONE|DICT|INTERRES
    75   37  101 1    
    76   38   39 2    
    77   38   40 1    
    78   40   41 1    
    79   40   42 1    
    80   40  102 1    
    81   41  103 1    
    82   41  104 1    
    83   41  105 1    
    84   42   43 am   BACKBONE|DICT|INTERRES
    85   42  106 1    
    86   43   44 2    
    87   43   45 1    
    88   45   46 1    
    89   45   49 1    
    90   45  107 1    
    91   46   47 1    
    92   46  108 1    
    93   46  109 1    
    94   47   48 1    
    95   48  110 1    
    96   48  111 1    
    97   49   50 am   BACKBONE|DICT|INTERRES
    98   49  112 1    
    99   50   51 2    
   100   50   52 1    
   101   52   53 1    
   102   52   54 1    
   103   52  113 1    
   104   53  114 1    
   105   53  115 1    
   106   53  116 1    
   107   54   55 am   BACKBONE|DICT|INTERRES
   108   54  117 1    
   109   55   56 2    
   110   55   57 1    
   111   57   58 1    
   112   57   59 1    
   113   57  118 1    
   114   58  119 1    
   115   58  120 1    
   116   58  121 1    
   117   59   60 am   BACKBONE|DICT|INTERRES
   118   59  122 1    
   119   60   61 2    
   120   60   62 1    
   121   62   63 1    
   122   62   64 1    
   123   62  123 1    
   124   63  124 1    
   125   63  125 1    
   126   63  126 1    
   127   64   65 am   BACKBONE|DICT|INTERRES
   128   64  127 1    
   129   65   66 2    
@<TRIPOS>SUBSTRUCTURE
     1 UNK         1 GROUP             0       ****    0 ROOT    
