@<TRIPOS>MOLECULE
3R135
127   129    1
SMALL
USER_CHARGES


@<TRIPOS>ATOM
      1 CA        -86.4119   28.8361  -76.3961 C.3       0 UNK        -0.1998 
      2 C         -85.1253   28.4178  -75.7008 C.2       0 UNK         0.4909 
      3 O         -85.0532   27.3112  -75.1659 O.2       0 UNK        -0.5240 
      4 N         -84.1066   29.2892  -75.7165 N.am      1 UNK        -0.4739 
      5 CA        -82.7700   29.1328  -75.1186 C.3       1 UNK         0.0864 
      6 C6        -82.8079   28.8354  -73.5930 C.3       11 UNK        -0.0881 
      7 S7        -81.3408   29.4603  -72.7055 S.3       11 UNK        -0.2682 
      8 C8        -80.3516   27.9336  -72.5652 C.3       11 UNK         0.0289 
      9 C9        -78.9897   28.1195  -71.8965 C.ar      11 UNK        -0.0687 
     10 C10       -78.4634   27.0692  -71.1401 C.ar      11 UNK        -0.0823 
     11 C11       -77.1985   27.1690  -70.5557 C.ar      11 UNK        -0.0830 
     12 C12       -76.4645   28.3475  -70.6999 C.ar      11 UNK        -0.1021 
     13 C13       -76.9721   29.4092  -71.4538 C.ar      11 UNK        -0.0753 
     14 C14       -78.2276   29.2849  -72.0598 C.ar      11 UNK        -0.0933 
     15 C15       -76.1739   30.6979  -71.5961 C.3       11 UNK         0.0166 
     16 S16       -74.9339   30.5943  -72.9244 S.3       11 UNK        -0.2615 
     17 C17       -73.6329   29.5808  -72.1362 C.3       11 UNK        -0.0865 
     18 CA        -72.2414   29.7507  -72.8029 C.3       10 UNK         0.0862 
     19 C         -71.1383   28.9466  -72.0529 C.2       10 UNK         0.5551 
     20 N         -70.3013   28.1635  -72.7251 N.am      10 UNK        -0.7319 
     21 O         -71.0292   29.0462  -70.8332 O.2       10 UNK        -0.5018 
     22 N         -72.2917   29.4581  -74.2425 N.am      10 UNK        -0.4509 
     23 C         -71.6141   30.1241  -75.1835 C.2       10 UNK         0.4899 
     24 O         -70.8895   31.0932  -74.9493 O.2       10 UNK        -0.4839 
     25 CA        -71.7811   29.6228  -76.6301 C.3       9 UNK         0.0222 
     26 CB        -70.7122   30.1859  -77.5915 C.3       9 UNK        -0.1966 
     27 N         -71.8591   28.1611  -76.7380 N.am      9 UNK        -0.4218 
     28 C         -70.9219   27.2635  -76.3927 C.2       9 UNK         0.5020 
     29 O         -69.8564   27.5746  -75.8572 O.2       9 UNK        -0.5274 
     30 CA        -71.2023   25.7690  -76.6709 C.3       8 UNK         0.0270 
     31 CB        -70.8346   24.8984  -75.4559 C.3       8 UNK        -0.1976 
     32 N         -72.5878   25.4855  -77.0559 N.am      8 UNK        -0.4313 
     33 C         -73.1234   25.6853  -78.2676 C.2       8 UNK         0.5041 
     34 O         -72.4764   26.0472  -79.2504 O.2       8 UNK        -0.5577 
     35 CA        -74.6509   25.5238  -78.3837 C.3       7 UNK         0.0284 
     36 CB        -75.0251   24.0761  -78.7380 C.3       7 UNK        -0.1958 
     37 N         -75.3630   25.9374  -77.1683 N.am      7 UNK        -0.4454 
     38 C         -75.3600   27.1822  -76.6673 C.2       7 UNK         0.5089 
     39 O         -74.8053   28.1349  -77.2141 O.2       7 UNK        -0.5125 
     40 CA        -76.0322   27.3868  -75.2999 C.3       6 UNK         0.0408 
     41 CB        -77.5500   27.5427  -75.4556 C.3       6 UNK        -0.1791 
     42 N         -75.7206   26.3040  -74.3610 N.am      6 UNK        -0.4762 
     43 C         -74.5019   26.1016  -73.8385 C.2       6 UNK         0.5007 
     44 O         -73.5407   26.8363  -74.0649 O.2       6 UNK        -0.5032 
     45 CA        -74.2881   24.8376  -72.9806 C.3       5 UNK         0.0783 
     46 C46       -74.5339   25.0774  -71.4625 C.3       11 UNK        -0.0857 
     47 S47       -76.1994   24.6126  -70.8608 S.3       11 UNK        -0.2512 
     48 C48       -76.6376   25.9986  -69.7664 C.3       11 UNK         0.0225 
     49 N         -75.0174   23.6799  -73.5055 N.am      5 UNK        -0.4615 
     50 C         -74.7751   23.0799  -74.6768 C.2       4 UNK         0.5053 
     51 O         -73.8519   23.3941  -75.4256 O.2       4 UNK        -0.5105 
     52 CA        -75.7684   21.9849  -75.1040 C.3       4 UNK         0.0263 
     53 CB        -75.4022   20.6390  -74.4592 C.3       4 UNK        -0.1981 
     54 N         -77.1593   22.3288  -74.7820 N.am      4 UNK        -0.4224 
     55 C         -77.8132   23.3705  -75.3131 C.2       3 UNK         0.4895 
     56 O         -77.3285   24.1190  -76.1659 O.2       3 UNK        -0.5091 
     57 CA        -79.2094   23.6702  -74.7579 C.3       3 UNK         0.0250 
     58 CB        -79.0880   24.3604  -73.3834 C.3       3 UNK        -0.1996 
     59 N         -79.8973   24.5356  -75.7146 N.am      3 UNK        -0.4254 
     60 C         -81.1738   24.9272  -75.6623 C.2       2 UNK         0.5004 
     61 O         -81.9664   24.5859  -74.7812 O.2       2 UNK        -0.5226 
     62 CA        -81.6596   25.8397  -76.7973 C.3       2 UNK         0.0269 
     63 CB        -82.5752   25.0689  -77.7623 C.3       2 UNK        -0.1926 
     64 N         -82.4030   26.9592  -76.2246 N.am      2 UNK        -0.4687 
     65 C         -81.8677   28.1351  -75.8793 C.2       1 UNK         0.5165 
     66 O         -80.7084   28.4525  -76.1462 O.2       1 UNK        -0.5079 
     67 H67       -86.6477   28.1384  -77.1993 H         1 UNK         0.0900 
     68 H68       -86.3385   29.8353  -76.8252 H         1 UNK         0.0900 
     69 H69       -87.2392   28.8318  -75.6869 H         1 UNK         0.0900 
     70 H70       -84.2391   30.1643  -76.2058 H         1 UNK         0.2959 
     71 H71       -82.3060   30.1122  -75.2502 H         1 UNK         0.1079 
     72 H72       -83.6691   29.3333  -73.1447 H         1 UNK         0.0837 
     73 H73       -82.9527   27.7715  -73.3932 H         1 UNK         0.0837 
     74 H74       -80.1932   27.5115  -73.5571 H         1 UNK         0.0685 
     75 H75       -80.9398   27.2009  -72.0101 H         1 UNK         0.0685 
     76 H76       -79.0300   26.1560  -71.0193 H         1 UNK         0.1434 
     77 H77       -75.4958   28.4374  -70.2289 H         1 UNK         0.1329 
     78 H78       -78.6092   30.1002  -72.6582 H         1 UNK         0.1335 
     79 H79       -76.8470   31.5278  -71.8166 H         1 UNK         0.0680 
     80 H80       -75.6888   30.9488  -70.6517 H         1 UNK         0.0680 
     81 H81       -73.5736   29.8583  -71.0823 H         1 UNK         0.1032 
     82 H82       -73.9445   28.5372  -72.1576 H         1 UNK         0.1032 
     83 H83       -71.9644   30.7986  -72.6745 H         1 UNK         0.0461 
     84 H84       -70.3563   28.0913  -73.7324 H         1 UNK         0.3453 
     85 H85       -69.5899   27.6573  -72.2230 H         1 UNK         0.3453 
     86 H86       -72.8198   28.6277  -74.4932 H         1 UNK         0.2984 
     87 H87       -72.7488   29.9990  -76.9643 H         1 UNK         0.0554 
     88 H88       -70.8706   29.8339  -78.6109 H         1 UNK         0.0847 
     89 H89       -69.7045   29.8987  -77.2897 H         1 UNK         0.0847 
     90 H90       -70.7446   31.2757  -77.6185 H         1 UNK         0.0847 
     91 H91       -72.7364   27.8145  -77.1101 H         1 UNK         0.3141 
     92 H92       -70.5532   25.4768  -77.4987 H         1 UNK         0.0743 
     93 H93       -69.7746   24.9865  -75.2148 H         1 UNK         0.0784 
     94 H94       -71.3942   25.1924  -74.5684 H         1 UNK         0.0784 
     95 H95       -71.0343   23.8436  -75.6459 H         1 UNK         0.0784 
     96 H96       -73.1869   25.1049  -76.3300 H         1 UNK         0.3213 
     97 H97       -74.9883   26.1706  -79.1964 H         1 UNK         0.0855 
     98 H98       -74.5536   23.7704  -79.6728 H         1 UNK         0.0814 
     99 H99       -76.1020   23.9639  -78.8650 H         1 UNK         0.0814 
    100 H100      -74.7048   23.3748  -77.9680 H         1 UNK         0.0814 
    101 H101      -75.9037   25.2223  -76.6864 H         1 UNK         0.3105 
    102 H102      -75.6466   28.3163  -74.8758 H         1 UNK         0.0547 
    103 H103      -78.0138   26.6602  -75.8919 H         1 UNK         0.0837 
    104 H104      -78.0246   27.7338  -74.4965 H         1 UNK         0.0837 
    105 H105      -77.7895   28.3866  -76.1038 H         1 UNK         0.0837 
    106 H106      -76.4518   25.6394  -74.1599 H         1 UNK         0.3020 
    107 H107      -73.2265   24.6028  -73.0874 H         1 UNK         0.1245 
    108 H108      -74.3087   26.1085  -71.1826 H         1 UNK         0.0781 
    109 H109      -73.8262   24.4713  -70.8950 H         1 UNK         0.0781 
    110 H110      -75.7702   26.2944  -69.1742 H         1 UNK         0.0836 
    111 H111      -77.3898   25.6580  -69.0533 H         1 UNK         0.0836 
    112 H112      -75.7895   23.3606  -72.9383 H         1 UNK         0.3022 
    113 H113      -75.6929   21.8755  -76.1879 H         1 UNK         0.0747 
    114 H114      -76.0481   19.8380  -74.8195 H         1 UNK         0.0793 
    115 H115      -74.3760   20.3583  -74.7011 H         1 UNK         0.0793 
    116 H116      -75.4830   20.6731  -73.3720 H         1 UNK         0.0793 
    117 H117      -77.6221   21.7593  -74.0876 H         1 UNK         0.3047 
    118 H118      -79.7646   22.7349  -74.6633 H         1 UNK         0.0822 
    119 H119      -78.5490   23.7345  -72.6718 H         1 UNK         0.0807 
    120 H120      -80.0638   24.5629  -72.9430 H         1 UNK         0.0807 
    121 H121      -78.5545   25.3080  -73.4574 H         1 UNK         0.0807 
    122 H122      -79.3051   24.8247  -76.4843 H         1 UNK         0.2946 
    123 H123      -80.8000   26.2126  -77.3597 H         1 UNK         0.1144 
    124 H124      -82.0478   24.2264  -78.2116 H         1 UNK         0.0793 
    125 H125      -82.9195   25.7076  -78.5758 H         1 UNK         0.0793 
    126 H126      -83.4548   24.6710  -77.2541 H         1 UNK         0.0793 
    127 H127      -83.3514   26.7703  -75.9112 H         1 UNK         0.2896 
@<TRIPOS>BOND
     1    1    2 1    
     2    1   67 1    
     3    1   68 1    
     4    1   69 1    
     5    2    3 2    
     6    2    4 am   BACKBONE|DICT|INTERRES
     7    4    5 1    
     8    4   70 1    
     9    5    6 1    
    10    5   65 1    
    11    5   71 1    
    12    6    7 1    
    13    6   72 1    
    14    6   73 1    
    15    7    8 1    
    16    8    9 1    
    17    8   74 1    
    18    8   75 1    
    19    9   10 ar   
    20    9   14 ar   
    21   10   11 ar   
    22   10   76 1    
    23   11   12 ar   
    24   11   48 1    
    25   12   13 ar   
    26   12   77 1    
    27   13   14 ar   
    28   13   15 1    
    29   14   78 1    
    30   15   16 1    
    31   15   79 1    
    32   15   80 1    
    33   16   17 1    
    34   17   18 1    
    35   17   81 1    
    36   17   82 1    
    37   18   19 1    
    38   18   22 1    
    39   18   83 1    
    40   19   20 am   BACKBONE|DICT|INTERRES
    41   19   21 2    
    42   20   84 1    
    43   20   85 1    
    44   22   23 am   BACKBONE|DICT|INTERRES
    45   22   86 1    
    46   23   24 2    
    47   23   25 1    
    48   25   26 1    
    49   25   27 1    
    50   25   87 1    
    51   26   88 1    
    52   26   89 1    
    53   26   90 1    
    54   27   28 am   BACKBONE|DICT|INTERRES
    55   27   91 1    
    56   28   29 2    
    57   28   30 1    
    58   30   31 1    
    59   30   32 1    
    60   30   92 1    
    61   31   93 1    
    62   31   94 1    
    63   31   95 1    
    64   32   33 am   BACKBONE|DICT|INTERRES
    65   32   96 1    
    66   33   34 2    
    67   33   35 1    
    68   35   36 1    
    69   35   37 1    
    70   35   97 1    
    71   36   98 1    
    72   36   99 1    
    73   36  100 1    
    74   37   38 am   BACKBONE|DICT|INTERRES
    75   37  101 1    
    76   38   39 2    
    77   38   40 1    
    78   40   41 1    
    79   40   42 1    
    80   40  102 1    
    81   41  103 1    
    82   41  104 1    
    83   41  105 1    
    84   42   43 am   BACKBONE|DICT|INTERRES
    85   42  106 1    
    86   43   44 2    
    87   43   45 1    
    88   45   46 1    
    89   45   49 1    
    90   45  107 1    
    91   46   47 1    
    92   46  108 1    
    93   46  109 1    
    94   47   48 1    
    95   48  110 1    
    96   48  111 1    
    97   49   50 am   BACKBONE|DICT|INTERRES
    98   49  112 1    
    99   50   51 2    
   100   50   52 1    
   101   52   53 1    
   102   52   54 1    
   103   52  113 1    
   104   53  114 1    
   105   53  115 1    
   106   53  116 1    
   107   54   55 am   BACKBONE|DICT|INTERRES
   108   54  117 1    
   109   55   56 2    
   110   55   57 1    
   111   57   58 1    
   112   57   59 1    
   113   57  118 1    
   114   58  119 1    
   115   58  120 1    
   116   58  121 1    
   117   59   60 am   BACKBONE|DICT|INTERRES
   118   59  122 1    
   119   60   61 2    
   120   60   62 1    
   121   62   63 1    
   122   62   64 1    
   123   62  123 1    
   124   63  124 1    
   125   63  125 1    
   126   63  126 1    
   127   64   65 am   BACKBONE|DICT|INTERRES
   128   64  127 1    
   129   65   66 2    
@<TRIPOS>SUBSTRUCTURE
     1 UNK         1 GROUP             0       ****    0 ROOT    
