@<TRIPOS>MOLECULE
3R135
127   129    1
SMALL
USER_CHARGES


@<TRIPOS>ATOM
      1 CA        -79.5877   24.8221  -78.7591 C.3       0 UNK        -0.1998 
      2 C         -79.1761   25.5022  -77.4648 C.2       0 UNK         0.4909 
      3 O         -78.7127   24.8323  -76.5356 O.2       0 UNK        -0.5240 
      4 N         -79.3387   26.8306  -77.3890 N.am      1 UNK        -0.4739 
      5 CA        -79.0832   27.6331  -76.1884 C.3       1 UNK         0.0864 
      6 C6        -78.8197   29.1319  -76.5122 C.3       11 UNK        -0.0881 
      7 S7        -77.4032   29.8025  -75.5754 S.3       11 UNK        -0.2682 
      8 C8        -78.1745   30.3694  -74.0165 C.3       11 UNK         0.0289 
      9 C9        -77.6198   29.6560  -72.7843 C.ar      11 UNK        -0.0687 
     10 C10       -77.4743   28.2669  -72.7751 C.ar      11 UNK        -0.0823 
     11 C11       -76.9755   27.5970  -71.6591 C.ar      11 UNK        -0.0830 
     12 C12       -76.6505   28.3288  -70.5146 C.ar      11 UNK        -0.1021 
     13 C13       -76.8143   29.7183  -70.4899 C.ar      11 UNK        -0.0753 
     14 C14       -77.2864   30.3776  -71.6319 C.ar      11 UNK        -0.0933 
     15 C15       -76.5399   30.4965  -69.2087 C.3       11 UNK         0.0166 
     16 S16       -74.9479   31.3796  -69.2329 S.3       11 UNK        -0.2615 
     17 C17       -73.7401   30.0065  -69.2344 C.3       11 UNK        -0.0865 
     18 CA        -72.7994   30.0433  -70.4678 C.3       10 UNK         0.0862 
     19 C         -71.7365   28.9046  -70.4175 C.2       10 UNK         0.5551 
     20 N         -71.5460   28.1082  -71.4633 N.am      10 UNK        -0.7319 
     21 O         -71.0599   28.7455  -69.4043 O.2       10 UNK        -0.5018 
     22 N         -73.5567   30.1087  -71.7254 N.am      10 UNK        -0.4509 
     23 C         -73.1109   30.6662  -72.8533 C.2       10 UNK         0.4899 
     24 O         -72.0267   31.2425  -72.9686 O.2       10 UNK        -0.4839 
     25 CA        -74.0513   30.5626  -74.0621 C.3       9 UNK         0.0222 
     26 CB        -74.6402   31.9433  -74.3963 C.3       9 UNK        -0.1966 
     27 N         -73.4020   30.0087  -75.2528 N.am      9 UNK        -0.4218 
     28 C         -72.6857   28.8772  -75.3231 C.2       9 UNK         0.5020 
     29 O         -72.4304   28.1547  -74.3571 O.2       9 UNK        -0.5274 
     30 CA        -72.2386   28.4637  -76.7366 C.3       8 UNK         0.0270 
     31 CB        -71.2065   27.3208  -76.7291 C.3       8 UNK        -0.1976 
     32 N         -73.4098   28.0692  -77.5258 N.am      8 UNK        -0.4313 
     33 C         -74.2216   28.9368  -78.1493 C.2       8 UNK         0.5041 
     34 O         -73.9934   30.1478  -78.1846 O.2       8 UNK        -0.5577 
     35 CA        -75.5312   28.4212  -78.7778 C.3       7 UNK         0.0284 
     36 CB        -75.6620   28.8286  -80.2605 C.3       7 UNK        -0.1958 
     37 N         -75.8028   26.9922  -78.5739 N.am      7 UNK        -0.4454 
     38 C         -75.2061   25.9418  -79.1544 C.2       7 UNK         0.5089 
     39 O         -74.3052   26.0283  -79.9892 O.2       7 UNK        -0.5125 
     40 CA        -75.6922   24.5609  -78.6693 C.3       6 UNK         0.0408 
     41 CB        -74.8177   23.4007  -79.1889 C.3       6 UNK        -0.1791 
     42 N         -75.8319   24.4847  -77.2061 N.am      6 UNK        -0.4762 
     43 C         -74.8620   24.6985  -76.3017 C.2       6 UNK         0.5007 
     44 O         -73.7316   25.0759  -76.6057 O.2       6 UNK        -0.5032 
     45 CA        -75.1876   24.4668  -74.8110 C.3       5 UNK         0.0783 
     46 C46       -75.2281   25.8080  -74.0388 C.3       11 UNK        -0.0857 
     47 S47       -75.1682   25.5662  -72.2287 S.3       11 UNK        -0.2512 
     48 C48       -76.8257   26.0821  -71.6832 C.3       11 UNK         0.0225 
     49 N         -76.3996   23.6650  -74.5905 N.am      5 UNK        -0.4615 
     50 C         -76.4791   22.3439  -74.8000 C.2       4 UNK         0.5053 
     51 O         -75.5739   21.6704  -75.2916 O.2       4 UNK        -0.5105 
     52 CA        -77.7784   21.6577  -74.3682 C.3       4 UNK         0.0263 
     53 CB        -77.8819   21.6137  -72.8291 C.3       4 UNK        -0.1981 
     54 N         -78.9535   22.3070  -74.9543 N.am      4 UNK        -0.4224 
     55 C         -80.1693   21.7447  -75.0221 C.2       3 UNK         0.4895 
     56 O         -80.4158   20.5989  -74.6391 O.2       3 UNK        -0.5091 
     57 CA        -81.2983   22.6207  -75.6014 C.3       3 UNK         0.0250 
     58 CB        -82.6985   21.9856  -75.4606 C.3       3 UNK        -0.1996 
     59 N         -81.2805   23.9810  -75.0497 N.am      3 UNK        -0.4254 
     60 C         -81.4090   24.3578  -73.7663 C.2       2 UNK         0.5004 
     61 O         -81.6737   23.5892  -72.8413 O.2       2 UNK        -0.5226 
     62 CA        -81.1510   25.8483  -73.4758 C.3       2 UNK         0.0269 
     63 CB        -80.7238   26.1067  -72.0181 C.3       2 UNK        -0.1926 
     64 N         -80.1169   26.3527  -74.3835 N.am      2 UNK        -0.4687 
     65 C         -80.2322   27.4223  -75.1772 C.2       1 UNK         0.5165 
     66 O         -81.2103   28.1708  -75.1795 O.2       1 UNK        -0.5079 
     67 H67       -79.3581   25.4453  -79.6231 H         1 UNK         0.0900 
     68 H68       -79.0644   23.8737  -78.8765 H         1 UNK         0.0900 
     69 H69       -80.6580   24.6183  -78.7530 H         1 UNK         0.0900 
     70 H70       -79.7586   27.3227  -78.1659 H         1 UNK         0.2959 
     71 H71       -78.1715   27.2251  -75.7498 H         1 UNK         0.1079 
     72 H72       -79.6943   29.7699  -76.3730 H         1 UNK         0.0837 
     73 H73       -78.5664   29.2473  -77.5667 H         1 UNK         0.0837 
     74 H74       -78.0142   31.4454  -73.9343 H         1 UNK         0.0685 
     75 H75       -79.2544   30.2215  -74.0493 H         1 UNK         0.0685 
     76 H76       -77.7522   27.6997  -73.6439 H         1 UNK         0.1434 
     77 H77       -76.2911   27.8110  -69.6358 H         1 UNK         0.1329 
     78 H78       -77.4151   31.4512  -71.6116 H         1 UNK         0.1335 
     79 H79       -77.3376   31.2247  -69.0554 H         1 UNK         0.0680 
     80 H80       -76.5689   29.8343  -68.3418 H         1 UNK         0.0680 
     81 H81       -73.1575   30.0824  -68.3143 H         1 UNK         0.1032 
     82 H82       -74.2562   29.0480  -69.1775 H         1 UNK         0.1032 
     83 H83       -72.2249   30.9683  -70.3885 H         1 UNK         0.0461 
     84 H84       -72.0573   28.2403  -72.3294 H         1 UNK         0.3453 
     85 H85       -70.8517   27.3812  -71.4042 H         1 UNK         0.3453 
     86 H86       -74.4634   29.6627  -71.7173 H         1 UNK         0.2984 
     87 H87       -74.8725   29.8884  -73.8125 H         1 UNK         0.0554 
     88 H88       -75.1965   32.3431  -73.5473 H         1 UNK         0.0847 
     89 H89       -75.3288   31.8949  -75.2393 H         1 UNK         0.0847 
     90 H90       -73.8602   32.6640  -74.6451 H         1 UNK         0.0847 
     91 H91       -73.5814   30.4864  -76.1293 H         1 UNK         0.3141 
     92 H92       -71.7598   29.3283  -77.2019 H         1 UNK         0.0743 
     93 H93       -71.5810   26.4322  -76.2213 H         1 UNK         0.0784 
     94 H94       -70.9231   27.0340  -77.7418 H         1 UNK         0.0784 
     95 H95       -70.2971   27.6267  -76.2105 H         1 UNK         0.0784 
     96 H96       -73.6584   27.0869  -77.4974 H         1 UNK         0.3213 
     97 H97       -76.3231   28.9416  -78.2409 H         1 UNK         0.0855 
     98 H98       -74.8527   28.4252  -80.8692 H         1 UNK         0.0814 
     99 H99       -75.6317   29.9136  -80.3686 H         1 UNK         0.0814 
    100 H100      -76.6065   28.4889  -80.6852 H         1 UNK         0.0814 
    101 H101      -76.5039   26.7855  -77.8771 H         1 UNK         0.3105 
    102 H102      -76.6895   24.4260  -79.0869 H         1 UNK         0.0547 
    103 H103      -75.1971   22.4365  -78.8508 H         1 UNK         0.0837 
    104 H104      -73.7840   23.4898  -78.8532 H         1 UNK         0.0837 
    105 H105      -74.8038   23.3789  -80.2793 H         1 UNK         0.0837 
    106 H106      -76.7532   24.2404  -76.8590 H         1 UNK         0.3020 
    107 H107      -74.3429   23.8922  -74.4223 H         1 UNK         0.1245 
    108 H108      -76.1006   26.3891  -74.3297 H         1 UNK         0.0781 
    109 H109      -74.3644   26.4226  -74.2943 H         1 UNK         0.0781 
    110 H110      -77.0055   25.6807  -70.6847 H         1 UNK         0.0836 
    111 H111      -77.5777   25.6294  -72.3291 H         1 UNK         0.0836 
    112 H112      -77.1749   24.1365  -74.1548 H         1 UNK         0.3022 
    113 H113      -77.7344   20.6312  -74.7394 H         1 UNK         0.0747 
    114 H114      -78.7151   20.9916  -72.5022 H         1 UNK         0.0793 
    115 H115      -76.9775   21.1933  -72.3870 H         1 UNK         0.0793 
    116 H116      -78.0241   22.6072  -72.4025 H         1 UNK         0.0793 
    117 H117      -78.8140   23.2142  -75.3899 H         1 UNK         0.3047 
    118 H118      -81.0877   22.7167  -76.6677 H         1 UNK         0.0822 
    119 H119      -83.4682   22.6212  -75.8982 H         1 UNK         0.0807 
    120 H120      -82.9619   21.8097  -74.4172 H         1 UNK         0.0807 
    121 H121      -82.7439   21.0237  -75.9728 H         1 UNK         0.0807 
    122 H122      -81.0461   24.7062  -75.7118 H         1 UNK         0.2946 
    123 H123      -82.0976   26.3648  -73.6520 H         1 UNK         0.1144 
    124 H124      -80.4720   27.1551  -71.8559 H         1 UNK         0.0793 
    125 H125      -79.8599   25.5054  -71.7366 H         1 UNK         0.0793 
    126 H126      -81.5298   25.8569  -71.3270 H         1 UNK         0.0793 
    127 H127      -79.3267   25.7400  -74.5323 H         1 UNK         0.2896 
@<TRIPOS>BOND
     1    1    2 1    
     2    1   67 1    
     3    1   68 1    
     4    1   69 1    
     5    2    3 2    
     6    2    4 am   BACKBONE|DICT|INTERRES
     7    4    5 1    
     8    4   70 1    
     9    5    6 1    
    10    5   65 1    
    11    5   71 1    
    12    6    7 1    
    13    6   72 1    
    14    6   73 1    
    15    7    8 1    
    16    8    9 1    
    17    8   74 1    
    18    8   75 1    
    19    9   10 ar   
    20    9   14 ar   
    21   10   11 ar   
    22   10   76 1    
    23   11   12 ar   
    24   11   48 1    
    25   12   13 ar   
    26   12   77 1    
    27   13   14 ar   
    28   13   15 1    
    29   14   78 1    
    30   15   16 1    
    31   15   79 1    
    32   15   80 1    
    33   16   17 1    
    34   17   18 1    
    35   17   81 1    
    36   17   82 1    
    37   18   19 1    
    38   18   22 1    
    39   18   83 1    
    40   19   20 am   BACKBONE|DICT|INTERRES
    41   19   21 2    
    42   20   84 1    
    43   20   85 1    
    44   22   23 am   BACKBONE|DICT|INTERRES
    45   22   86 1    
    46   23   24 2    
    47   23   25 1    
    48   25   26 1    
    49   25   27 1    
    50   25   87 1    
    51   26   88 1    
    52   26   89 1    
    53   26   90 1    
    54   27   28 am   BACKBONE|DICT|INTERRES
    55   27   91 1    
    56   28   29 2    
    57   28   30 1    
    58   30   31 1    
    59   30   32 1    
    60   30   92 1    
    61   31   93 1    
    62   31   94 1    
    63   31   95 1    
    64   32   33 am   BACKBONE|DICT|INTERRES
    65   32   96 1    
    66   33   34 2    
    67   33   35 1    
    68   35   36 1    
    69   35   37 1    
    70   35   97 1    
    71   36   98 1    
    72   36   99 1    
    73   36  100 1    
    74   37   38 am   BACKBONE|DICT|INTERRES
    75   37  101 1    
    76   38   39 2    
    77   38   40 1    
    78   40   41 1    
    79   40   42 1    
    80   40  102 1    
    81   41  103 1    
    82   41  104 1    
    83   41  105 1    
    84   42   43 am   BACKBONE|DICT|INTERRES
    85   42  106 1    
    86   43   44 2    
    87   43   45 1    
    88   45   46 1    
    89   45   49 1    
    90   45  107 1    
    91   46   47 1    
    92   46  108 1    
    93   46  109 1    
    94   47   48 1    
    95   48  110 1    
    96   48  111 1    
    97   49   50 am   BACKBONE|DICT|INTERRES
    98   49  112 1    
    99   50   51 2    
   100   50   52 1    
   101   52   53 1    
   102   52   54 1    
   103   52  113 1    
   104   53  114 1    
   105   53  115 1    
   106   53  116 1    
   107   54   55 am   BACKBONE|DICT|INTERRES
   108   54  117 1    
   109   55   56 2    
   110   55   57 1    
   111   57   58 1    
   112   57   59 1    
   113   57  118 1    
   114   58  119 1    
   115   58  120 1    
   116   58  121 1    
   117   59   60 am   BACKBONE|DICT|INTERRES
   118   59  122 1    
   119   60   61 2    
   120   60   62 1    
   121   62   63 1    
   122   62   64 1    
   123   62  123 1    
   124   63  124 1    
   125   63  125 1    
   126   63  126 1    
   127   64   65 am   BACKBONE|DICT|INTERRES
   128   64  127 1    
   129   65   66 2    
@<TRIPOS>SUBSTRUCTURE
     1 UNK         1 GROUP             0       ****    0 ROOT    
