@<TRIPOS>MOLECULE
3R135
127   129    1
SMALL
USER_CHARGES


@<TRIPOS>ATOM
      1 CA        -81.7594   23.9366  -68.3039 C.3       0 UNK        -0.1998 
      2 C         -81.6538   24.4941  -69.7154 C.2       0 UNK         0.4909 
      3 O         -82.6765   24.7816  -70.3378 O.2       0 UNK        -0.5240 
      4 N         -80.4239   24.6500  -70.2250 N.am      1 UNK        -0.4739 
      5 CA        -80.1359   25.1522  -71.5756 C.3       1 UNK         0.0864 
      6 C6        -78.6592   25.6101  -71.6938 C.3       11 UNK        -0.0881 
      7 S7        -78.3956   26.8872  -72.9701 S.3       11 UNK        -0.2682 
      8 C8        -78.7483   28.4047  -72.0275 C.3       11 UNK         0.0289 
      9 C9        -78.0647   29.6166  -72.6421 C.ar      11 UNK        -0.0687 
     10 C10       -78.6738   30.3280  -73.6815 C.ar      11 UNK        -0.0823 
     11 C11       -78.0468   31.4524  -74.2299 C.ar      11 UNK        -0.0830 
     12 C12       -76.8085   31.8640  -73.7290 C.ar      11 UNK        -0.1021 
     13 C13       -76.1859   31.1550  -72.6991 C.ar      11 UNK        -0.0753 
     14 C14       -76.8219   30.0352  -72.1557 C.ar      11 UNK        -0.0933 
     15 C15       -74.8242   31.5959  -72.1841 C.3       11 UNK         0.0166 
     16 S16       -73.5248   31.2207  -73.3988 S.3       11 UNK        -0.2615 
     17 C17       -72.0044   31.5536  -72.4396 C.3       11 UNK        -0.0865 
     18 CA        -71.3022   30.2664  -71.9248 C.3       10 UNK         0.0862 
     19 C         -71.9751   29.7118  -70.6329 C.2       10 UNK         0.5551 
     20 N         -72.4993   28.4920  -70.6101 N.am      10 UNK        -0.7319 
     21 O         -72.0129   30.4079  -69.6213 O.2       10 UNK        -0.5018 
     22 N         -71.1280   29.2907  -73.0098 N.am      10 UNK        -0.4509 
     23 C         -70.2693   28.2654  -73.0204 C.2       10 UNK         0.4899 
     24 O         -69.4054   28.0875  -72.1602 O.2       10 UNK        -0.4839 
     25 CA        -70.4209   27.2693  -74.1919 C.3       9 UNK         0.0222 
     26 CB        -69.7911   25.8942  -73.8848 C.3       9 UNK        -0.1966 
     27 N         -71.8116   27.1064  -74.6495 N.am      9 UNK        -0.4218 
     28 C         -72.8665   26.7245  -73.9096 C.2       9 UNK         0.5020 
     29 O         -72.8027   26.4635  -72.7075 O.2       9 UNK        -0.5274 
     30 CA        -74.2348   26.6583  -74.6087 C.3       8 UNK         0.0270 
     31 CB        -75.0434   27.9287  -74.3144 C.3       8 UNK        -0.1976 
     32 N         -74.1664   26.4650  -76.0586 N.am      8 UNK        -0.4313 
     33 C         -73.7994   25.3247  -76.6583 C.2       8 UNK         0.5041 
     34 O         -73.3949   24.3355  -76.0454 O.2       8 UNK        -0.5577 
     35 CA        -73.8936   25.2817  -78.1926 C.3       7 UNK         0.0284 
     36 CB        -74.2064   23.8712  -78.7267 C.3       7 UNK        -0.1958 
     37 N         -74.8896   26.2296  -78.7039 N.am      7 UNK        -0.4454 
     38 C         -74.7005   27.0266  -79.7653 C.2       7 UNK         0.5089 
     39 O         -73.6527   27.0577  -80.4122 O.2       7 UNK        -0.5125 
     40 CA        -75.8599   27.9422  -80.2084 C.3       6 UNK         0.0408 
     41 CB        -76.5610   27.3490  -81.4413 C.3       6 UNK        -0.1791 
     42 N         -76.8659   28.2137  -79.1794 N.am      6 UNK        -0.4762 
     43 C         -76.6562   28.8913  -78.0412 C.2       6 UNK         0.5007 
     44 O         -75.5615   29.3497  -77.7129 O.2       6 UNK        -0.5032 
     45 CA        -77.8662   29.0212  -77.0861 C.3       5 UNK         0.0783 
     46 C46       -78.7215   30.2747  -77.4035 C.3       11 UNK        -0.0857 
     47 S47       -77.9259   31.8559  -76.9654 S.3       11 UNK        -0.2512 
     48 C48       -78.6965   32.2368  -75.3594 C.3       11 UNK         0.0225 
     49 N         -78.7241   27.8264  -77.0584 N.am      5 UNK        -0.4615 
     50 C         -78.3328   26.5631  -76.8465 C.2       4 UNK         0.5053 
     51 O         -77.1560   26.2280  -76.7077 O.2       4 UNK        -0.5105 
     52 CA        -79.4634   25.5202  -76.8148 C.3       4 UNK         0.0263 
     53 CB        -80.0488   25.2725  -78.2212 C.3       4 UNK        -0.1981 
     54 N         -79.0607   24.2713  -76.1592 N.am      4 UNK        -0.4224 
     55 C         -78.2087   23.3277  -76.5941 C.2       3 UNK         0.4895 
     56 O         -77.7284   23.2915  -77.7271 O.2       3 UNK        -0.5091 
     57 CA        -77.8044   22.2295  -75.5903 C.3       3 UNK         0.0250 
     58 CB        -76.3827   22.4950  -75.0665 C.3       3 UNK        -0.1996 
     59 N         -78.7150   22.1133  -74.4479 N.am      3 UNK        -0.4254 
     60 C         -79.9512   21.5981  -74.5024 C.2       2 UNK         0.5004 
     61 O         -80.4295   21.0702  -75.5066 O.2       2 UNK        -0.5226 
     62 CA        -80.8108   21.7128  -73.2292 C.3       2 UNK         0.0269 
     63 CB        -80.7627   20.4022  -72.4270 C.3       2 UNK        -0.1926 
     64 N         -80.4470   22.8304  -72.3469 N.am      2 UNK        -0.4687 
     65 C         -80.5077   24.1317  -72.6742 C.2       1 UNK         0.5165 
     66 O         -80.8350   24.5323  -73.7911 O.2       1 UNK        -0.5079 
     67 H67       -82.2752   24.6466  -67.6580 H         1 UNK         0.0900 
     68 H68       -80.7803   23.7337  -67.8704 H         1 UNK         0.0900 
     69 H69       -82.3270   23.0064  -68.3097 H         1 UNK         0.0900 
     70 H70       -79.6214   24.4041  -69.6622 H         1 UNK         0.2959 
     71 H71       -80.7769   26.0235  -71.7304 H         1 UNK         0.1079 
     72 H72       -78.3089   26.0132  -70.7424 H         1 UNK         0.0837 
     73 H73       -77.9980   24.7666  -71.9024 H         1 UNK         0.0837 
     74 H74       -79.8274   28.5603  -71.9885 H         1 UNK         0.0685 
     75 H75       -78.4195   28.2895  -70.9938 H         1 UNK         0.0685 
     76 H76       -79.6326   30.0035  -74.0623 H         1 UNK         0.1434 
     77 H77       -76.3167   32.7278  -74.1557 H         1 UNK         0.1329 
     78 H78       -76.3443   29.4814  -71.3589 H         1 UNK         0.1335 
     79 H79       -74.5953   31.1003  -71.2396 H         1 UNK         0.0680 
     80 H80       -74.8348   32.6678  -71.9811 H         1 UNK         0.0680 
     81 H81       -71.3196   32.0891  -73.0987 H         1 UNK         0.1032 
     82 H82       -72.2153   32.2489  -71.6245 H         1 UNK         0.1032 
     83 H83       -70.2995   30.5631  -71.6108 H         1 UNK         0.0461 
     84 H84       -72.4800   27.8901  -71.4275 H         1 UNK         0.3453 
     85 H85       -72.9207   28.1581  -69.7588 H         1 UNK         0.3453 
     86 H86       -71.8133   29.3521  -73.7486 H         1 UNK         0.2984 
     87 H87       -69.8730   27.7033  -75.0293 H         1 UNK         0.0554 
     88 H88       -69.8952   25.2125  -74.7288 H         1 UNK         0.0847 
     89 H89       -70.2533   25.4240  -73.0161 H         1 UNK         0.0847 
     90 H90       -68.7248   25.9878  -73.6752 H         1 UNK         0.0847 
     91 H91       -71.9820   27.3138  -75.6235 H         1 UNK         0.3141 
     92 H92       -74.7743   25.8099  -74.1818 H         1 UNK         0.0743 
     93 H93       -75.0683   28.1353  -73.2441 H         1 UNK         0.0784 
     94 H94       -74.6245   28.8050  -74.8096 H         1 UNK         0.0784 
     95 H95       -76.0759   27.8214  -74.6434 H         1 UNK         0.0784 
     96 H96       -74.5019   27.2247  -76.6352 H         1 UNK         0.3213 
     97 H97       -72.8994   25.5607  -78.5479 H         1 UNK         0.0855 
     98 H98       -75.1663   23.5101  -78.3584 H         1 UNK         0.0814 
     99 H99       -73.4460   23.1533  -78.4169 H         1 UNK         0.0814 
    100 H100      -74.2378   23.8566  -79.8161 H         1 UNK         0.0814 
    101 H101      -75.7731   26.2618  -78.1999 H         1 UNK         0.3105 
    102 H102      -75.4203   28.8994  -80.4962 H         1 UNK         0.0547 
    103 H103      -77.0430   26.3976  -81.2123 H         1 UNK         0.0837 
    104 H104      -77.3197   28.0264  -81.8334 H         1 UNK         0.0837 
    105 H105      -75.8480   27.1661  -82.2466 H         1 UNK         0.0837 
    106 H106      -77.7920   27.8468  -79.3454 H         1 UNK         0.3020 
    107 H107      -77.4593   29.1293  -76.0787 H         1 UNK         0.1245 
    108 H108      -79.6736   30.2218  -76.8735 H         1 UNK         0.0781 
    109 H109      -78.9839   30.3041  -78.4630 H         1 UNK         0.0781 
    110 H110      -78.5835   33.3043  -75.1640 H         1 UNK         0.0836 
    111 H111      -79.7711   32.0532  -75.4004 H         1 UNK         0.0836 
    112 H112      -79.7119   27.9992  -77.1741 H         1 UNK         0.3022 
    113 H113      -80.2571   25.9283  -76.1868 H         1 UNK         0.0747 
    114 H114      -80.5270   26.1712  -78.6117 H         1 UNK         0.0793 
    115 H115      -80.8054   24.4881  -78.2026 H         1 UNK         0.0793 
    116 H116      -79.2814   24.9813  -78.9390 H         1 UNK         0.0793 
    117 H117      -79.4180   24.1785  -75.2148 H         1 UNK         0.3047 
    118 H118      -77.8023   21.2783  -76.1271 H         1 UNK         0.0822 
    119 H119      -75.6667   22.5384  -75.8887 H         1 UNK         0.0807 
    120 H120      -76.0503   21.7062  -74.3916 H         1 UNK         0.0807 
    121 H121      -76.3184   23.4461  -74.5356 H         1 UNK         0.0807 
    122 H122      -78.4024   22.5061  -73.5723 H         1 UNK         0.2946 
    123 H123      -81.8400   21.8767  -73.5571 H         1 UNK         0.1144 
    124 H124      -79.7612   20.1978  -72.0465 H         1 UNK         0.0793 
    125 H125      -81.0551   19.5535  -73.0472 H         1 UNK         0.0793 
    126 H126      -81.4467   20.4302  -71.5785 H         1 UNK         0.0793 
    127 H127      -80.1773   22.5935  -71.4029 H         1 UNK         0.2896 
@<TRIPOS>BOND
     1    1    2 1    
     2    1   67 1    
     3    1   68 1    
     4    1   69 1    
     5    2    3 2    
     6    2    4 am   BACKBONE|DICT|INTERRES
     7    4    5 1    
     8    4   70 1    
     9    5    6 1    
    10    5   65 1    
    11    5   71 1    
    12    6    7 1    
    13    6   72 1    
    14    6   73 1    
    15    7    8 1    
    16    8    9 1    
    17    8   74 1    
    18    8   75 1    
    19    9   10 ar   
    20    9   14 ar   
    21   10   11 ar   
    22   10   76 1    
    23   11   12 ar   
    24   11   48 1    
    25   12   13 ar   
    26   12   77 1    
    27   13   14 ar   
    28   13   15 1    
    29   14   78 1    
    30   15   16 1    
    31   15   79 1    
    32   15   80 1    
    33   16   17 1    
    34   17   18 1    
    35   17   81 1    
    36   17   82 1    
    37   18   19 1    
    38   18   22 1    
    39   18   83 1    
    40   19   20 am   BACKBONE|DICT|INTERRES
    41   19   21 2    
    42   20   84 1    
    43   20   85 1    
    44   22   23 am   BACKBONE|DICT|INTERRES
    45   22   86 1    
    46   23   24 2    
    47   23   25 1    
    48   25   26 1    
    49   25   27 1    
    50   25   87 1    
    51   26   88 1    
    52   26   89 1    
    53   26   90 1    
    54   27   28 am   BACKBONE|DICT|INTERRES
    55   27   91 1    
    56   28   29 2    
    57   28   30 1    
    58   30   31 1    
    59   30   32 1    
    60   30   92 1    
    61   31   93 1    
    62   31   94 1    
    63   31   95 1    
    64   32   33 am   BACKBONE|DICT|INTERRES
    65   32   96 1    
    66   33   34 2    
    67   33   35 1    
    68   35   36 1    
    69   35   37 1    
    70   35   97 1    
    71   36   98 1    
    72   36   99 1    
    73   36  100 1    
    74   37   38 am   BACKBONE|DICT|INTERRES
    75   37  101 1    
    76   38   39 2    
    77   38   40 1    
    78   40   41 1    
    79   40   42 1    
    80   40  102 1    
    81   41  103 1    
    82   41  104 1    
    83   41  105 1    
    84   42   43 am   BACKBONE|DICT|INTERRES
    85   42  106 1    
    86   43   44 2    
    87   43   45 1    
    88   45   46 1    
    89   45   49 1    
    90   45  107 1    
    91   46   47 1    
    92   46  108 1    
    93   46  109 1    
    94   47   48 1    
    95   48  110 1    
    96   48  111 1    
    97   49   50 am   BACKBONE|DICT|INTERRES
    98   49  112 1    
    99   50   51 2    
   100   50   52 1    
   101   52   53 1    
   102   52   54 1    
   103   52  113 1    
   104   53  114 1    
   105   53  115 1    
   106   53  116 1    
   107   54   55 am   BACKBONE|DICT|INTERRES
   108   54  117 1    
   109   55   56 2    
   110   55   57 1    
   111   57   58 1    
   112   57   59 1    
   113   57  118 1    
   114   58  119 1    
   115   58  120 1    
   116   58  121 1    
   117   59   60 am   BACKBONE|DICT|INTERRES
   118   59  122 1    
   119   60   61 2    
   120   60   62 1    
   121   62   63 1    
   122   62   64 1    
   123   62  123 1    
   124   63  124 1    
   125   63  125 1    
   126   63  126 1    
   127   64   65 am   BACKBONE|DICT|INTERRES
   128   64  127 1    
   129   65   66 2    
@<TRIPOS>SUBSTRUCTURE
     1 UNK         1 GROUP             0       ****    0 ROOT    
