@<TRIPOS>MOLECULE
3R135
127   129    1
SMALL
USER_CHARGES


@<TRIPOS>ATOM
      1 CA        -84.8257   26.6208  -71.8019 C.3       0 UNK        -0.1998 
      2 C         -83.4569   27.2237  -71.4985 C.2       0 UNK         0.4909 
      3 O         -83.0567   27.2606  -70.3370 O.2       0 UNK        -0.5240 
      4 N         -82.7019   27.7109  -72.4933 N.am      1 UNK        -0.4739 
      5 CA        -83.0023   27.6993  -73.9329 C.3       1 UNK         0.0864 
      6 C6        -82.2082   28.8006  -74.6852 C.3       11 UNK        -0.0881 
      7 S7        -80.3935   28.6212  -74.5669 S.3       11 UNK        -0.2682 
      8 C8        -79.9794   29.8568  -73.3004 C.3       11 UNK         0.0289 
      9 C9        -78.6338   29.5468  -72.6648 C.ar      11 UNK        -0.0687 
     10 C10       -78.5017   28.4292  -71.8360 C.ar      11 UNK        -0.0823 
     11 C11       -77.2792   28.1339  -71.2287 C.ar      11 UNK        -0.0830 
     12 C12       -76.1830   28.9748  -71.4455 C.ar      11 UNK        -0.1021 
     13 C13       -76.3051   30.1018  -72.2649 C.ar      11 UNK        -0.0753 
     14 C14       -77.5306   30.3783  -72.8801 C.ar      11 UNK        -0.0933 
     15 C15       -75.1277   31.0465  -72.4475 C.3       11 UNK         0.0166 
     16 S16       -74.1308   30.6238  -73.9086 S.3       11 UNK        -0.2615 
     17 C17       -72.8768   31.9548  -73.8361 C.3       11 UNK        -0.0865 
     18 CA        -71.4582   31.4803  -73.4240 C.3       10 UNK         0.0862 
     19 C         -71.4014   30.9677  -71.9534 C.2       10 UNK         0.5551 
     20 N         -71.0206   29.7225  -71.6949 N.am      10 UNK        -0.7319 
     21 O         -71.6981   31.7227  -71.0306 O.2       10 UNK        -0.5018 
     22 N         -70.8785   30.5830  -74.4354 N.am      10 UNK        -0.4509 
     23 C         -69.5738   30.3343  -74.5967 C.2       10 UNK         0.4899 
     24 O         -68.6932   30.8467  -73.9037 O.2       10 UNK        -0.4839 
     25 CA        -69.1959   29.3409  -75.7159 C.3       9 UNK         0.0222 
     26 CB        -67.6755   29.1126  -75.8173 C.3       9 UNK        -0.1966 
     27 N         -69.8608   28.0431  -75.5584 N.am      9 UNK        -0.4218 
     28 C         -71.1386   27.7856  -75.8639 C.2       9 UNK         0.5020 
     29 O         -71.9161   28.6357  -76.3052 O.2       9 UNK        -0.5274 
     30 CA        -71.6300   26.3585  -75.5720 C.3       8 UNK         0.0270 
     31 CB        -71.9482   26.1990  -74.0753 C.3       8 UNK        -0.1976 
     32 N         -72.8171   26.0262  -76.3651 N.am      8 UNK        -0.4313 
     33 C         -72.7833   25.7435  -77.6767 C.2       8 UNK         0.5041 
     34 O         -71.7350   25.6736  -78.3221 O.2       8 UNK        -0.5577 
     35 CA        -74.1105   25.4611  -78.4099 C.3       7 UNK         0.0284 
     36 CB        -74.2087   23.9721  -78.7833 C.3       7 UNK        -0.1958 
     37 N         -75.3088   25.8346  -77.6592 N.am      7 UNK        -0.4454 
     38 C         -75.7324   27.0862  -77.4375 C.2       7 UNK         0.5089 
     39 O         -75.1947   28.0873  -77.9100 O.2       7 UNK        -0.5125 
     40 CA        -76.9652   27.2430  -76.5249 C.3       6 UNK         0.0408 
     41 CB        -78.2403   27.2659  -77.3823 C.3       6 UNK        -0.1791 
     42 N         -77.0810   26.1915  -75.5048 N.am      6 UNK        -0.4762 
     43 C         -76.1540   25.9161  -74.5727 C.2       6 UNK         0.5007 
     44 O         -75.0992   26.5377  -74.4648 O.2       6 UNK        -0.5032 
     45 CA        -76.3954   24.6872  -73.6771 C.3       5 UNK         0.0783 
     46 C46       -77.2396   25.0148  -72.4202 C.3       11 UNK        -0.0857 
     47 S47       -76.1779   25.5844  -71.0484 S.3       11 UNK        -0.2512 
     48 C48       -77.1577   26.9273  -70.3098 C.3       11 UNK         0.0225 
     49 N         -76.9688   23.5910  -74.4602 N.am      5 UNK        -0.4615 
     50 C         -76.2393   22.7068  -75.1553 C.2       4 UNK         0.5053 
     51 O         -75.0087   22.6886  -75.1596 O.2       4 UNK        -0.5105 
     52 CA        -77.0011   21.6679  -75.9974 C.3       4 UNK         0.0263 
     53 CB        -77.2354   20.3854  -75.1832 C.3       4 UNK        -0.1981 
     54 N         -78.2828   22.1585  -76.5074 N.am      4 UNK        -0.4224 
     55 C         -78.4159   23.1445  -77.4053 C.2       3 UNK         0.4895 
     56 O         -77.4676   23.7244  -77.9326 O.2       3 UNK        -0.5091 
     57 CA        -79.8513   23.5894  -77.7350 C.3       3 UNK         0.0250 
     58 CB        -80.4207   22.7505  -78.8901 C.3       3 UNK        -0.1996 
     59 N         -80.7758   23.5468  -76.5944 N.am      3 UNK        -0.4254 
     60 C         -80.6037   24.2023  -75.4378 C.2       2 UNK         0.5004 
     61 O         -79.5930   24.8506  -75.1562 O.2       2 UNK        -0.5226 
     62 CA        -81.7245   24.0810  -74.3967 C.3       2 UNK         0.0269 
     63 CB        -81.2706   23.2016  -73.2200 C.3       2 UNK        -0.1926 
     64 N         -82.0912   25.4041  -73.8946 N.am      2 UNK        -0.4687 
     65 C         -82.8058   26.3084  -74.5805 C.2       1 UNK         0.5165 
     66 O         -83.3188   26.0765  -75.6763 O.2       1 UNK        -0.5079 
     67 H67       -85.3157   26.3083  -70.8799 H         1 UNK         0.0900 
     68 H68       -84.7367   25.7425  -72.4401 H         1 UNK         0.0900 
     69 H69       -85.4750   27.3485  -72.2873 H         1 UNK         0.0900 
     70 H70       -81.8029   28.1044  -72.2589 H         1 UNK         0.2959 
     71 H71       -84.0591   27.9408  -74.0598 H         1 UNK         0.1079 
     72 H72       -82.4787   28.8050  -75.7430 H         1 UNK         0.0837 
     73 H73       -82.4981   29.7843  -74.3125 H         1 UNK         0.0837 
     74 H74       -79.9813   30.8488  -73.7546 H         1 UNK         0.0685 
     75 H75       -80.7436   29.8705  -72.5224 H         1 UNK         0.0685 
     76 H76       -79.3554   27.7877  -71.6665 H         1 UNK         0.1434 
     77 H77       -75.2369   28.7555  -70.9694 H         1 UNK         0.1329 
     78 H78       -77.6271   31.2493  -73.5139 H         1 UNK         0.1335 
     79 H79       -75.4912   32.0709  -72.5424 H         1 UNK         0.0680 
     80 H80       -74.4936   31.0269  -71.5597 H         1 UNK         0.0680 
     81 H81       -73.2144   32.7488  -73.1673 H         1 UNK         0.1032 
     82 H82       -72.8296   32.4191  -74.8223 H         1 UNK         0.1032 
     83 H83       -70.8320   32.3747  -73.4261 H         1 UNK         0.0461 
     84 H84       -70.9815   29.4043  -70.7398 H         1 UNK         0.3453 
     85 H85       -70.7708   29.1035  -72.4478 H         1 UNK         0.3453 
     86 H86       -71.5357   30.0861  -75.0309 H         1 UNK         0.2984 
     87 H87       -69.5227   29.7856  -76.6583 H         1 UNK         0.0554 
     88 H88       -67.4269   28.4533  -76.6491 H         1 UNK         0.0847 
     89 H89       -67.2700   28.6718  -74.9057 H         1 UNK         0.0847 
     90 H90       -67.1491   30.0531  -75.9864 H         1 UNK         0.0847 
     91 H91       -69.3012   27.3003  -75.1637 H         1 UNK         0.3141 
     92 H92       -70.8368   25.6544  -75.8332 H         1 UNK         0.0743 
     93 H93       -72.6375   26.9687  -73.7248 H         1 UNK         0.0784 
     94 H94       -72.3942   25.2272  -73.8622 H         1 UNK         0.0784 
     95 H95       -71.0438   26.2791  -73.4714 H         1 UNK         0.0784 
     96 H96       -73.7134   26.1421  -75.9025 H         1 UNK         0.3213 
     97 H97       -74.0960   26.0441  -79.3332 H         1 UNK         0.0855 
     98 H98       -73.3430   23.6542  -79.3660 H         1 UNK         0.0814 
     99 H99       -75.0938   23.7720  -79.3875 H         1 UNK         0.0814 
    100 H100      -74.2574   23.3378  -77.8971 H         1 UNK         0.0814 
    101 H101      -75.8786   25.0750  -77.3047 H         1 UNK         0.3105 
    102 H102      -76.8818   28.1957  -75.9978 H         1 UNK         0.0547 
    103 H103      -79.1420   27.2642  -76.7722 H         1 UNK         0.0837 
    104 H104      -78.2896   26.4052  -78.0487 H         1 UNK         0.0837 
    105 H105      -78.2695   28.1595  -78.0067 H         1 UNK         0.0837 
    106 H106      -77.9487   25.6588  -75.4952 H         1 UNK         0.3020 
    107 H107      -75.4096   24.3596  -73.3366 H         1 UNK         0.1245 
    108 H108      -77.7513   24.1191  -72.0645 H         1 UNK         0.0781 
    109 H109      -78.0281   25.7360  -72.6418 H         1 UNK         0.0781 
    110 H110      -76.6817   27.2361  -69.3780 H         1 UNK         0.0836 
    111 H111      -78.1412   26.5433  -70.0338 H         1 UNK         0.0836 
    112 H112      -77.9751   23.5987  -74.5697 H         1 UNK         0.3022 
    113 H113      -76.3733   21.4189  -76.8559 H         1 UNK         0.0747 
    114 H114      -77.6995   19.6082  -75.7907 H         1 UNK         0.0793 
    115 H115      -76.2923   19.9826  -74.8110 H         1 UNK         0.0793 
    116 H116      -77.8762   20.5658  -74.3190 H         1 UNK         0.0793 
    117 H117      -79.1193   21.7386  -76.1292 H         1 UNK         0.3047 
    118 H118      -79.8016   24.6275  -78.0667 H         1 UNK         0.0822 
    119 H119      -81.3926   23.1250  -79.2120 H         1 UNK         0.0807 
    120 H120      -80.5390   21.7028  -78.6107 H         1 UNK         0.0807 
    121 H121      -79.7606   22.7836  -79.7583 H         1 UNK         0.0807 
    122 H122      -81.6316   23.0287  -76.7345 H         1 UNK         0.2946 
    123 H123      -82.6035   23.6241  -74.8574 H         1 UNK         0.1144 
    124 H124      -81.0053   22.1995  -73.5596 H         1 UNK         0.0793 
    125 H125      -82.0627   23.0921  -72.4790 H         1 UNK         0.0793 
    126 H126      -80.3967   23.6175  -72.7165 H         1 UNK         0.0793 
    127 H127      -81.6701   25.6941  -73.0244 H         1 UNK         0.2896 
@<TRIPOS>BOND
     1    1    2 1    
     2    1   67 1    
     3    1   68 1    
     4    1   69 1    
     5    2    3 2    
     6    2    4 am   BACKBONE|DICT|INTERRES
     7    4    5 1    
     8    4   70 1    
     9    5    6 1    
    10    5   65 1    
    11    5   71 1    
    12    6    7 1    
    13    6   72 1    
    14    6   73 1    
    15    7    8 1    
    16    8    9 1    
    17    8   74 1    
    18    8   75 1    
    19    9   10 ar   
    20    9   14 ar   
    21   10   11 ar   
    22   10   76 1    
    23   11   12 ar   
    24   11   48 1    
    25   12   13 ar   
    26   12   77 1    
    27   13   14 ar   
    28   13   15 1    
    29   14   78 1    
    30   15   16 1    
    31   15   79 1    
    32   15   80 1    
    33   16   17 1    
    34   17   18 1    
    35   17   81 1    
    36   17   82 1    
    37   18   19 1    
    38   18   22 1    
    39   18   83 1    
    40   19   20 am   BACKBONE|DICT|INTERRES
    41   19   21 2    
    42   20   84 1    
    43   20   85 1    
    44   22   23 am   BACKBONE|DICT|INTERRES
    45   22   86 1    
    46   23   24 2    
    47   23   25 1    
    48   25   26 1    
    49   25   27 1    
    50   25   87 1    
    51   26   88 1    
    52   26   89 1    
    53   26   90 1    
    54   27   28 am   BACKBONE|DICT|INTERRES
    55   27   91 1    
    56   28   29 2    
    57   28   30 1    
    58   30   31 1    
    59   30   32 1    
    60   30   92 1    
    61   31   93 1    
    62   31   94 1    
    63   31   95 1    
    64   32   33 am   BACKBONE|DICT|INTERRES
    65   32   96 1    
    66   33   34 2    
    67   33   35 1    
    68   35   36 1    
    69   35   37 1    
    70   35   97 1    
    71   36   98 1    
    72   36   99 1    
    73   36  100 1    
    74   37   38 am   BACKBONE|DICT|INTERRES
    75   37  101 1    
    76   38   39 2    
    77   38   40 1    
    78   40   41 1    
    79   40   42 1    
    80   40  102 1    
    81   41  103 1    
    82   41  104 1    
    83   41  105 1    
    84   42   43 am   BACKBONE|DICT|INTERRES
    85   42  106 1    
    86   43   44 2    
    87   43   45 1    
    88   45   46 1    
    89   45   49 1    
    90   45  107 1    
    91   46   47 1    
    92   46  108 1    
    93   46  109 1    
    94   47   48 1    
    95   48  110 1    
    96   48  111 1    
    97   49   50 am   BACKBONE|DICT|INTERRES
    98   49  112 1    
    99   50   51 2    
   100   50   52 1    
   101   52   53 1    
   102   52   54 1    
   103   52  113 1    
   104   53  114 1    
   105   53  115 1    
   106   53  116 1    
   107   54   55 am   BACKBONE|DICT|INTERRES
   108   54  117 1    
   109   55   56 2    
   110   55   57 1    
   111   57   58 1    
   112   57   59 1    
   113   57  118 1    
   114   58  119 1    
   115   58  120 1    
   116   58  121 1    
   117   59   60 am   BACKBONE|DICT|INTERRES
   118   59  122 1    
   119   60   61 2    
   120   60   62 1    
   121   62   63 1    
   122   62   64 1    
   123   62  123 1    
   124   63  124 1    
   125   63  125 1    
   126   63  126 1    
   127   64   65 am   BACKBONE|DICT|INTERRES
   128   64  127 1    
   129   65   66 2    
@<TRIPOS>SUBSTRUCTURE
     1 UNK         1 GROUP             0       ****    0 ROOT    
