@<TRIPOS>MOLECULE
3R135
127   129    1
SMALL
USER_CHARGES


@<TRIPOS>ATOM
      1 CA        -84.6486   27.9590  -73.0213 C.3       0 UNK        -0.1998 
      2 C         -83.1979   28.4080  -73.1133 C.2       0 UNK         0.4909 
      3 O         -82.9348   29.5714  -73.4206 O.2       0 UNK        -0.5240 
      4 N         -82.2564   27.4971  -72.8385 N.am      1 UNK        -0.4739 
      5 CA        -80.8106   27.7319  -72.9280 C.3       1 UNK         0.0864 
      6 C6        -79.9994   26.6242  -72.2110 C.3       11 UNK        -0.0881 
      7 S7        -80.5281   26.3194  -70.4838 S.3       11 UNK        -0.2682 
      8 C8        -79.5934   27.5575  -69.5197 C.3       11 UNK         0.0289 
      9 C9        -78.1189   27.5899  -69.8906 C.ar      11 UNK        -0.0687 
     10 C10       -77.3367   26.4373  -69.7779 C.ar      11 UNK        -0.0823 
     11 C11       -76.0201   26.4255  -70.2461 C.ar      11 UNK        -0.0830 
     12 C12       -75.4680   27.5953  -70.7774 C.ar      11 UNK        -0.1021 
     13 C13       -76.2450   28.7512  -70.8981 C.ar      11 UNK        -0.0753 
     14 C14       -77.5634   28.7488  -70.4375 C.ar      11 UNK        -0.0933 
     15 C15       -75.7122   29.9635  -71.6397 C.3       11 UNK         0.0166 
     16 S16       -76.1713   29.8010  -73.3876 S.3       11 UNK        -0.2615 
     17 C17       -75.7144   31.4185  -74.1017 C.3       11 UNK        -0.0865 
     18 CA        -74.2805   31.4858  -74.7111 C.3       10 UNK         0.0862 
     19 C         -73.1888   31.8987  -73.6791 C.2       10 UNK         0.5551 
     20 N         -71.9888   31.3238  -73.6980 N.am      10 UNK        -0.7319 
     21 O         -73.4211   32.7773  -72.8526 O.2       10 UNK        -0.5018 
     22 N         -73.9069   30.2827  -75.4601 N.am      10 UNK        -0.4509 
     23 C         -74.4584   29.7689  -76.5584 C.2       10 UNK         0.4899 
     24 O         -75.3824   30.2993  -77.1757 O.2       10 UNK        -0.4839 
     25 CA        -73.9011   28.4125  -77.0437 C.3       9 UNK         0.0222 
     26 CB        -73.0253   28.5929  -78.2977 C.3       9 UNK        -0.1966 
     27 N         -73.1988   27.6090  -76.0242 N.am      9 UNK        -0.4218 
     28 C         -72.0594   27.8738  -75.3611 C.2       9 UNK         0.5020 
     29 O         -71.4173   28.9177  -75.4864 O.2       9 UNK        -0.5274 
     30 CA        -71.5876   26.8358  -74.3345 C.3       8 UNK         0.0270 
     31 CB        -72.3322   27.0409  -73.0061 C.3       8 UNK        -0.1976 
     32 N         -71.8154   25.4751  -74.8176 N.am      8 UNK        -0.4313 
     33 C         -70.8959   24.7184  -75.4322 C.2       8 UNK         0.5041 
     34 O         -69.7167   25.0467  -75.5712 O.2       8 UNK        -0.5577 
     35 CA        -71.3665   23.3650  -75.9995 C.3       7 UNK         0.0284 
     36 CB        -71.1747   22.2499  -74.9587 C.3       7 UNK        -0.1958 
     37 N         -72.7637   23.3809  -76.4395 N.am      7 UNK        -0.4454 
     38 C         -73.2339   24.1046  -77.4653 C.2       7 UNK         0.5089 
     39 O         -72.5182   24.7462  -78.2341 O.2       7 UNK        -0.5125 
     40 CA        -74.7626   24.1440  -77.6563 C.3       6 UNK         0.0408 
     41 CB        -75.1734   23.1815  -78.7819 C.3       6 UNK        -0.1791 
     42 N         -75.5605   23.8576  -76.4532 N.am      6 UNK        -0.4762 
     43 C         -75.4921   24.5214  -75.2867 C.2       6 UNK         0.5007 
     44 O         -74.6713   25.4143  -75.0722 O.2       6 UNK        -0.5032 
     45 CA        -76.5297   24.1331  -74.2138 C.3       5 UNK         0.0783 
     46 C46       -76.4022   24.9163  -72.8808 C.3       11 UNK        -0.0857 
     47 S47       -74.8866   24.5013  -71.9382 S.3       11 UNK        -0.2512 
     48 C48       -75.2313   25.1227  -70.2520 C.3       11 UNK         0.0225 
     49 N         -77.8471   24.3090  -74.8238 N.am      5 UNK        -0.4615 
     50 C         -78.8374   23.4072  -74.8111 C.2       4 UNK         0.5053 
     51 O         -78.7959   22.3703  -74.1492 O.2       4 UNK        -0.5105 
     52 CA        -80.0665   23.6659  -75.7100 C.3       4 UNK         0.0263 
     53 CB        -81.3538   23.8622  -74.8918 C.3       4 UNK        -0.1981 
     54 N         -79.8871   24.7903  -76.6357 N.am      4 UNK        -0.4224 
     55 C         -79.1546   24.7180  -77.7585 C.2       3 UNK         0.4895 
     56 O         -78.6528   23.6714  -78.1677 O.2       3 UNK        -0.5091 
     57 CA        -78.9044   26.0157  -78.5521 C.3       3 UNK         0.0250 
     58 CB        -79.8255   26.0788  -79.7808 C.3       3 UNK        -0.1996 
     59 N         -79.0562   27.2498  -77.7751 N.am      3 UNK        -0.4254 
     60 C         -78.3288   27.5872  -76.7009 C.2       2 UNK         0.5004 
     61 O         -77.4318   26.8835  -76.2405 O.2       2 UNK        -0.5226 
     62 CA        -78.7007   28.8918  -75.9723 C.3       2 UNK         0.0269 
     63 CB        -79.6092   29.8374  -76.7906 C.3       2 UNK        -0.1926 
     64 N         -79.2971   28.6256  -74.6543 N.am      2 UNK        -0.4687 
     65 C         -80.3676   27.8554  -74.4027 C.2       1 UNK         0.5165 
     66 O         -80.9789   27.2300  -75.2751 O.2       1 UNK        -0.5079 
     67 H67       -85.1397   28.0793  -73.9866 H         1 UNK         0.0900 
     68 H68       -84.7337   26.9134  -72.7259 H         1 UNK         0.0900 
     69 H69       -85.1830   28.5630  -72.2886 H         1 UNK         0.0900 
     70 H70       -82.5286   26.5575  -72.5892 H         1 UNK         0.2959 
     71 H71       -80.5996   28.6831  -72.4337 H         1 UNK         0.1079 
     72 H72       -80.0960   25.6751  -72.7370 H         1 UNK         0.0837 
     73 H73       -78.9334   26.8508  -72.2460 H         1 UNK         0.0837 
     74 H74       -79.6922   27.3306  -68.4575 H         1 UNK         0.0685 
     75 H75       -80.0542   28.5350  -69.6707 H         1 UNK         0.0685 
     76 H76       -77.7801   25.5316  -69.3868 H         1 UNK         0.1434 
     77 H77       -74.4588   27.5837  -71.1622 H         1 UNK         0.1329 
     78 H78       -78.1733   29.6329  -70.5633 H         1 UNK         0.1335 
     79 H79       -76.1311   30.8813  -71.2242 H         1 UNK         0.0680 
     80 H80       -74.6274   30.0324  -71.5451 H         1 UNK         0.0680 
     81 H81       -75.8873   32.2100  -73.3705 H         1 UNK         0.1032 
     82 H82       -76.4337   31.6167  -74.8975 H         1 UNK         0.1032 
     83 H83       -74.2790   32.3024  -75.4348 H         1 UNK         0.0461 
     84 H84       -71.3057   31.6232  -73.0203 H         1 UNK         0.3453 
     85 H85       -71.7239   30.6406  -74.3959 H         1 UNK         0.3453 
     86 H86       -73.1171   29.7763  -75.0815 H         1 UNK         0.2984 
     87 H87       -74.7690   27.8157  -77.3296 H         1 UNK         0.0554 
     88 H88       -73.5796   29.0952  -79.0914 H         1 UNK         0.0847 
     89 H89       -72.6957   27.6310  -78.6909 H         1 UNK         0.0847 
     90 H90       -72.1387   29.1933  -78.0916 H         1 UNK         0.0847 
     91 H91       -73.7067   26.7718  -75.7398 H         1 UNK         0.3141 
     92 H92       -70.5224   26.9964  -74.1545 H         1 UNK         0.0743 
     93 H93       -72.1522   28.0397  -72.6059 H         1 UNK         0.0784 
     94 H94       -73.4098   26.9290  -73.1314 H         1 UNK         0.0784 
     95 H95       -72.0072   26.3235  -72.2524 H         1 UNK         0.0784 
     96 H96       -72.7770   25.1488  -74.7872 H         1 UNK         0.3213 
     97 H97       -70.7434   23.1370  -76.8672 H         1 UNK         0.0855 
     98 H98       -71.7877   22.4142  -74.0715 H         1 UNK         0.0814 
     99 H99       -70.1354   22.1987  -74.6309 H         1 UNK         0.0814 
    100 H100      -71.4308   21.2733  -75.3700 H         1 UNK         0.0814 
    101 H101      -73.4292   22.8708  -75.8776 H         1 UNK         0.3105 
    102 H102      -75.0159   25.1592  -77.9693 H         1 UNK         0.0547 
    103 H103      -75.0132   22.1399  -78.5014 H         1 UNK         0.0837 
    104 H104      -74.5943   23.3673  -79.6878 H         1 UNK         0.0837 
    105 H105      -76.2225   23.3013  -79.0482 H         1 UNK         0.0837 
    106 H106      -76.2838   23.1597  -76.5599 H         1 UNK         0.3020 
    107 H107      -76.3640   23.0751  -73.9975 H         1 UNK         0.1245 
    108 H108      -77.2614   24.6920  -72.2467 H         1 UNK         0.0781 
    109 H109      -76.4306   25.9926  -73.0637 H         1 UNK         0.0781 
    110 H110      -74.2859   25.2701  -69.7283 H         1 UNK         0.0836 
    111 H111      -75.7663   24.3475  -69.7012 H         1 UNK         0.0836 
    112 H112      -77.9279   25.1359  -75.4103 H         1 UNK         0.3022 
    113 H113      -80.2035   22.7575  -76.3007 H         1 UNK         0.0747 
    114 H114      -81.3559   24.8002  -74.3428 H         1 UNK         0.0793 
    115 H115      -82.2309   23.8609  -75.5391 H         1 UNK         0.0793 
    116 H116      -81.4881   23.0578  -74.1673 H         1 UNK         0.0793 
    117 H117      -80.2711   25.6868  -76.3484 H         1 UNK         0.3047 
    118 H118      -77.8700   25.9779  -78.9007 H         1 UNK         0.0822 
    119 H119      -79.5912   26.9376  -80.4102 H         1 UNK         0.0807 
    120 H120      -80.8759   26.1467  -79.4944 H         1 UNK         0.0807 
    121 H121      -79.7136   25.1872  -80.3996 H         1 UNK         0.0807 
    122 H122      -79.8037   27.8691  -78.0528 H         1 UNK         0.2946 
    123 H123      -77.7571   29.4118  -75.8028 H         1 UNK         0.1144 
    124 H124      -79.7443   30.7868  -76.2722 H         1 UNK         0.0793 
    125 H125      -80.6007   29.4178  -76.9641 H         1 UNK         0.0793 
    126 H126      -79.1664   30.0677  -77.7608 H         1 UNK         0.0793 
    127 H127      -78.8110   29.0495  -73.8754 H         1 UNK         0.2896 
@<TRIPOS>BOND
     1    1    2 1    
     2    1   67 1    
     3    1   68 1    
     4    1   69 1    
     5    2    3 2    
     6    2    4 am   BACKBONE|DICT|INTERRES
     7    4    5 1    
     8    4   70 1    
     9    5    6 1    
    10    5   65 1    
    11    5   71 1    
    12    6    7 1    
    13    6   72 1    
    14    6   73 1    
    15    7    8 1    
    16    8    9 1    
    17    8   74 1    
    18    8   75 1    
    19    9   10 ar   
    20    9   14 ar   
    21   10   11 ar   
    22   10   76 1    
    23   11   12 ar   
    24   11   48 1    
    25   12   13 ar   
    26   12   77 1    
    27   13   14 ar   
    28   13   15 1    
    29   14   78 1    
    30   15   16 1    
    31   15   79 1    
    32   15   80 1    
    33   16   17 1    
    34   17   18 1    
    35   17   81 1    
    36   17   82 1    
    37   18   19 1    
    38   18   22 1    
    39   18   83 1    
    40   19   20 am   BACKBONE|DICT|INTERRES
    41   19   21 2    
    42   20   84 1    
    43   20   85 1    
    44   22   23 am   BACKBONE|DICT|INTERRES
    45   22   86 1    
    46   23   24 2    
    47   23   25 1    
    48   25   26 1    
    49   25   27 1    
    50   25   87 1    
    51   26   88 1    
    52   26   89 1    
    53   26   90 1    
    54   27   28 am   BACKBONE|DICT|INTERRES
    55   27   91 1    
    56   28   29 2    
    57   28   30 1    
    58   30   31 1    
    59   30   32 1    
    60   30   92 1    
    61   31   93 1    
    62   31   94 1    
    63   31   95 1    
    64   32   33 am   BACKBONE|DICT|INTERRES
    65   32   96 1    
    66   33   34 2    
    67   33   35 1    
    68   35   36 1    
    69   35   37 1    
    70   35   97 1    
    71   36   98 1    
    72   36   99 1    
    73   36  100 1    
    74   37   38 am   BACKBONE|DICT|INTERRES
    75   37  101 1    
    76   38   39 2    
    77   38   40 1    
    78   40   41 1    
    79   40   42 1    
    80   40  102 1    
    81   41  103 1    
    82   41  104 1    
    83   41  105 1    
    84   42   43 am   BACKBONE|DICT|INTERRES
    85   42  106 1    
    86   43   44 2    
    87   43   45 1    
    88   45   46 1    
    89   45   49 1    
    90   45  107 1    
    91   46   47 1    
    92   46  108 1    
    93   46  109 1    
    94   47   48 1    
    95   48  110 1    
    96   48  111 1    
    97   49   50 am   BACKBONE|DICT|INTERRES
    98   49  112 1    
    99   50   51 2    
   100   50   52 1    
   101   52   53 1    
   102   52   54 1    
   103   52  113 1    
   104   53  114 1    
   105   53  115 1    
   106   53  116 1    
   107   54   55 am   BACKBONE|DICT|INTERRES
   108   54  117 1    
   109   55   56 2    
   110   55   57 1    
   111   57   58 1    
   112   57   59 1    
   113   57  118 1    
   114   58  119 1    
   115   58  120 1    
   116   58  121 1    
   117   59   60 am   BACKBONE|DICT|INTERRES
   118   59  122 1    
   119   60   61 2    
   120   60   62 1    
   121   62   63 1    
   122   62   64 1    
   123   62  123 1    
   124   63  124 1    
   125   63  125 1    
   126   63  126 1    
   127   64   65 am   BACKBONE|DICT|INTERRES
   128   64  127 1    
   129   65   66 2    
@<TRIPOS>SUBSTRUCTURE
     1 UNK         1 GROUP             0       ****    0 ROOT    
