@<TRIPOS>MOLECULE
3R135
127   129    1
SMALL
USER_CHARGES


@<TRIPOS>ATOM
      1 CA        -85.3584   29.6248  -74.0059 C.3       0 UNK        -0.1998 
      2 C         -84.0899   28.8067  -73.8140 C.2       0 UNK         0.4909 
      3 O         -84.0953   27.8504  -73.0380 O.2       0 UNK        -0.5240 
      4 N         -83.0102   29.1819  -74.5145 N.am      1 UNK        -0.4739 
      5 CA        -81.6893   28.5353  -74.5054 C.3       1 UNK         0.0864 
      6 C6        -80.9528   28.6369  -73.1378 C.3       11 UNK        -0.0881 
      7 S7        -80.7451   30.3711  -72.6033 S.3       11 UNK        -0.2682 
      8 C8        -80.3217   30.1649  -70.8450 C.3       11 UNK         0.0289 
      9 C9        -78.9147   29.6132  -70.6757 C.ar      11 UNK        -0.0687 
     10 C10       -78.7133   28.2436  -70.4816 C.ar      11 UNK        -0.0823 
     11 C11       -77.4191   27.7242  -70.3764 C.ar      11 UNK        -0.0830 
     12 C12       -76.3246   28.5922  -70.4346 C.ar      11 UNK        -0.1021 
     13 C13       -76.5151   29.9663  -70.6051 C.ar      11 UNK        -0.0753 
     14 C14       -77.8122   30.4721  -70.7279 C.ar      11 UNK        -0.0933 
     15 C15       -75.3146   30.8972  -70.6460 C.3       11 UNK         0.0166 
     16 S16       -74.7498   31.1887  -72.3530 S.3       11 UNK        -0.2615 
     17 C17       -72.9662   31.4912  -72.0727 C.3       11 UNK        -0.0865 
     18 CA        -72.0374   30.3728  -72.6208 C.3       10 UNK         0.0862 
     19 C         -72.3407   28.9621  -72.0347 C.2       10 UNK         0.5551 
     20 N         -72.5994   27.9372  -72.8411 N.am      10 UNK        -0.7319 
     21 O         -72.3156   28.7892  -70.8187 O.2       10 UNK        -0.5018 
     22 N         -71.9642   30.3923  -74.0872 N.am      10 UNK        -0.4509 
     23 C         -70.9870   30.9409  -74.8137 C.2       10 UNK         0.4899 
     24 O         -70.0607   31.6008  -74.3390 O.2       10 UNK        -0.4839 
     25 CA        -71.0360   30.6539  -76.3274 C.3       9 UNK         0.0222 
     26 CB        -70.0897   31.5647  -77.1321 C.3       9 UNK        -0.1966 
     27 N         -70.7068   29.2523  -76.6101 N.am      9 UNK        -0.4218 
     28 C         -71.5206   28.2130  -76.3862 C.2       9 UNK         0.5020 
     29 O         -72.6612   28.3292  -75.9319 O.2       9 UNK        -0.5274 
     30 CA        -70.9517   26.8170  -76.6613 C.3       8 UNK         0.0270 
     31 CB        -70.2212   26.2734  -75.4218 C.3       8 UNK        -0.1976 
     32 N         -72.0518   25.9194  -77.0039 N.am      8 UNK        -0.4313 
     33 C         -72.0459   25.0436  -78.0180 C.2       8 UNK         0.5041 
     34 O         -71.0550   24.8187  -78.7153 O.2       8 UNK        -0.5577 
     35 CA        -73.3544   24.2872  -78.3310 C.3       7 UNK         0.0284 
     36 CB        -73.2871   22.8504  -77.7878 C.3       7 UNK        -0.1958 
     37 N         -74.5605   24.9301  -77.8077 N.am      7 UNK        -0.4454 
     38 C         -75.0104   26.1476  -78.1372 C.2       7 UNK         0.5089 
     39 O         -74.5212   26.8354  -79.0340 O.2       7 UNK        -0.5125 
     40 CA        -76.1867   26.7107  -77.3166 C.3       6 UNK         0.0408 
     41 CB        -77.4614   26.7639  -78.1732 C.3       6 UNK        -0.1791 
     42 N         -76.4843   25.9918  -76.0714 N.am      6 UNK        -0.4762 
     43 C         -75.6634   25.8364  -75.0198 C.2       6 UNK         0.5007 
     44 O         -74.4896   26.2009  -74.9982 O.2       6 UNK        -0.5032 
     45 CA        -76.2537   25.1055  -73.8044 C.3       5 UNK         0.0783 
     46 C46       -77.2538   26.0251  -73.0653 C.3       11 UNK        -0.0857 
     47 S47       -77.9654   25.2577  -71.5703 S.3       11 UNK        -0.2512 
     48 C48       -77.1940   26.2238  -70.2281 C.3       11 UNK         0.0225 
     49 N         -76.8510   23.8413  -74.2368 N.am      5 UNK        -0.4615 
     50 C         -76.1543   22.7286  -74.5036 C.2       4 UNK         0.5053 
     51 O         -74.9400   22.6250  -74.3334 O.2       4 UNK        -0.5105 
     52 CA        -76.9367   21.5281  -75.0656 C.3       4 UNK         0.0263 
     53 CB        -77.3905   20.6036  -73.9245 C.3       4 UNK        -0.1981 
     54 N         -78.1020   21.9217  -75.8610 N.am      4 UNK        -0.4224 
     55 C         -78.0433   22.5437  -77.0477 C.2       3 UNK         0.4895 
     56 O         -76.9947   22.7984  -77.6395 O.2       3 UNK        -0.5091 
     57 CA        -79.3845   22.9950  -77.6548 C.3       3 UNK         0.0250 
     58 CB        -79.9814   21.8813  -78.5297 C.3       3 UNK        -0.1996 
     59 N         -80.3737   23.4180  -76.6539 N.am      3 UNK        -0.4254 
     60 C         -80.2016   24.4349  -75.7978 C.2       2 UNK         0.5004 
     61 O         -79.1734   25.1132  -75.7425 O.2       2 UNK        -0.5226 
     62 CA        -81.3318   24.6873  -74.7884 C.3       2 UNK         0.0269 
     63 CB        -81.1623   23.7736  -73.5636 C.3       2 UNK        -0.1926 
     64 N         -81.3486   26.0823  -74.3410 N.am      2 UNK        -0.4687 
     65 C         -81.7896   27.1054  -75.0864 C.2       1 UNK         0.5165 
     66 O         -82.2757   26.9576  -76.2109 O.2       1 UNK        -0.5079 
     67 H67       -85.2133   30.4449  -74.7089 H         1 UNK         0.0900 
     68 H68       -86.1598   28.9910  -74.3849 H         1 UNK         0.0900 
     69 H69       -85.6789   30.0476  -73.0541 H         1 UNK         0.0900 
     70 H70       -83.0909   29.9651  -75.1478 H         1 UNK         0.2959 
     71 H71       -81.0860   29.0852  -75.2299 H         1 UNK         0.1079 
     72 H72       -79.9576   28.1928  -73.2043 H         1 UNK         0.0837 
     73 H73       -81.4925   28.0907  -72.3623 H         1 UNK         0.0837 
     74 H74       -80.3966   31.1336  -70.3487 H         1 UNK         0.0685 
     75 H75       -81.0550   29.5175  -70.3615 H         1 UNK         0.0685 
     76 H76       -79.5621   27.5745  -70.4437 H         1 UNK         0.1434 
     77 H77       -75.3189   28.2007  -70.3561 H         1 UNK         0.1329 
     78 H78       -77.9633   31.5327  -70.8766 H         1 UNK         0.1335 
     79 H79       -74.5086   30.4643  -70.0516 H         1 UNK         0.0680 
     80 H80       -75.5588   31.8529  -70.1797 H         1 UNK         0.0680 
     81 H81       -72.7063   32.4433  -72.5376 H         1 UNK         0.1032 
     82 H82       -72.7759   31.6378  -71.0084 H         1 UNK         0.1032 
     83 H83       -71.0374   30.5912  -72.2414 H         1 UNK         0.0461 
     84 H84       -72.6587   28.0438  -73.8454 H         1 UNK         0.3453 
     85 H85       -72.7841   27.0363  -72.4319 H         1 UNK         0.3453 
     86 H86       -72.6474   29.8218  -74.5740 H         1 UNK         0.2984 
     87 H87       -72.0545   30.8517  -76.6689 H         1 UNK         0.0554 
     88 H88       -70.3138   32.6167  -76.9500 H         1 UNK         0.0847 
     89 H89       -70.1921   31.3952  -78.2041 H         1 UNK         0.0847 
     90 H90       -69.0444   31.4039  -76.8652 H         1 UNK         0.0847 
     91 H91       -69.7698   29.0705  -76.9412 H         1 UNK         0.3141 
     92 H92       -70.2485   26.8930  -77.4934 H         1 UNK         0.0743 
     93 H93       -70.8930   26.1803  -74.5674 H         1 UNK         0.0784 
     94 H94       -69.7925   25.2902  -75.6170 H         1 UNK         0.0784 
     95 H95       -69.4032   26.9311  -75.1254 H         1 UNK         0.0784 
     96 H96       -72.9151   26.0927  -76.4941 H         1 UNK         0.3213 
     97 H97       -73.4511   24.2423  -79.4177 H         1 UNK         0.0855 
     98 H98       -73.2123   22.8350  -76.6995 H         1 UNK         0.0814 
     99 H99       -72.4179   22.3227  -78.1829 H         1 UNK         0.0814 
    100 H100      -74.1701   22.2766  -78.0709 H         1 UNK         0.0814 
    101 H101      -75.0688   24.4280  -77.0928 H         1 UNK         0.3105 
    102 H102      -75.9182   27.7319  -77.0392 H         1 UNK         0.0547 
    103 H103      -77.3034   27.3560  -79.0757 H         1 UNK         0.0837 
    104 H104      -77.7713   25.7673  -78.4873 H         1 UNK         0.0837 
    105 H105      -78.2902   27.2173  -77.6291 H         1 UNK         0.0837 
    106 H106      -77.4366   25.6384  -75.9832 H         1 UNK         0.3020 
    107 H107      -75.4293   24.8875  -73.1210 H         1 UNK         0.1245 
    108 H108      -78.0849   26.3047  -73.7138 H         1 UNK         0.0781 
    109 H109      -76.7626   26.9632  -72.8041 H         1 UNK         0.0781 
    110 H110      -76.1283   25.9909  -70.2007 H         1 UNK         0.0836 
    111 H111      -77.6054   25.8949  -69.2730 H         1 UNK         0.0836 
    112 H112      -77.8383   23.8693  -74.4491 H         1 UNK         0.3022 
    113 H113      -76.2591   20.9680  -75.7139 H         1 UNK         0.0747 
    114 H114      -77.8818   19.7095  -74.3087 H         1 UNK         0.0793 
    115 H115      -76.5380   20.2722  -73.3297 H         1 UNK         0.0793 
    116 H116      -78.0836   21.1056  -73.2480 H         1 UNK         0.0793 
    117 H117      -79.0107   21.7432  -75.4597 H         1 UNK         0.3047 
    118 H118      -79.1788   23.8546  -78.2952 H         1 UNK         0.0822 
    119 H119      -80.8801   22.2200  -79.0456 H         1 UNK         0.0807 
    120 H120      -80.2420   20.9996  -77.9428 H         1 UNK         0.0807 
    121 H121      -79.2716   21.5648  -79.2955 H         1 UNK         0.0807 
    122 H122      -81.2405   22.8996  -76.6298 H         1 UNK         0.2946 
    123 H123      -82.2879   24.4641  -75.2680 H         1 UNK         0.1144 
    124 H124      -81.9553   23.9382  -72.8337 H         1 UNK         0.0793 
    125 H125      -80.2080   23.9395  -73.0632 H         1 UNK         0.0793 
    126 H126      -81.2020   22.7214  -73.8479 H         1 UNK         0.0793 
    127 H127      -80.9467   26.2709  -73.4353 H         1 UNK         0.2896 
@<TRIPOS>BOND
     1    1    2 1    
     2    1   67 1    
     3    1   68 1    
     4    1   69 1    
     5    2    3 2    
     6    2    4 am   BACKBONE|DICT|INTERRES
     7    4    5 1    
     8    4   70 1    
     9    5    6 1    
    10    5   65 1    
    11    5   71 1    
    12    6    7 1    
    13    6   72 1    
    14    6   73 1    
    15    7    8 1    
    16    8    9 1    
    17    8   74 1    
    18    8   75 1    
    19    9   10 ar   
    20    9   14 ar   
    21   10   11 ar   
    22   10   76 1    
    23   11   12 ar   
    24   11   48 1    
    25   12   13 ar   
    26   12   77 1    
    27   13   14 ar   
    28   13   15 1    
    29   14   78 1    
    30   15   16 1    
    31   15   79 1    
    32   15   80 1    
    33   16   17 1    
    34   17   18 1    
    35   17   81 1    
    36   17   82 1    
    37   18   19 1    
    38   18   22 1    
    39   18   83 1    
    40   19   20 am   BACKBONE|DICT|INTERRES
    41   19   21 2    
    42   20   84 1    
    43   20   85 1    
    44   22   23 am   BACKBONE|DICT|INTERRES
    45   22   86 1    
    46   23   24 2    
    47   23   25 1    
    48   25   26 1    
    49   25   27 1    
    50   25   87 1    
    51   26   88 1    
    52   26   89 1    
    53   26   90 1    
    54   27   28 am   BACKBONE|DICT|INTERRES
    55   27   91 1    
    56   28   29 2    
    57   28   30 1    
    58   30   31 1    
    59   30   32 1    
    60   30   92 1    
    61   31   93 1    
    62   31   94 1    
    63   31   95 1    
    64   32   33 am   BACKBONE|DICT|INTERRES
    65   32   96 1    
    66   33   34 2    
    67   33   35 1    
    68   35   36 1    
    69   35   37 1    
    70   35   97 1    
    71   36   98 1    
    72   36   99 1    
    73   36  100 1    
    74   37   38 am   BACKBONE|DICT|INTERRES
    75   37  101 1    
    76   38   39 2    
    77   38   40 1    
    78   40   41 1    
    79   40   42 1    
    80   40  102 1    
    81   41  103 1    
    82   41  104 1    
    83   41  105 1    
    84   42   43 am   BACKBONE|DICT|INTERRES
    85   42  106 1    
    86   43   44 2    
    87   43   45 1    
    88   45   46 1    
    89   45   49 1    
    90   45  107 1    
    91   46   47 1    
    92   46  108 1    
    93   46  109 1    
    94   47   48 1    
    95   48  110 1    
    96   48  111 1    
    97   49   50 am   BACKBONE|DICT|INTERRES
    98   49  112 1    
    99   50   51 2    
   100   50   52 1    
   101   52   53 1    
   102   52   54 1    
   103   52  113 1    
   104   53  114 1    
   105   53  115 1    
   106   53  116 1    
   107   54   55 am   BACKBONE|DICT|INTERRES
   108   54  117 1    
   109   55   56 2    
   110   55   57 1    
   111   57   58 1    
   112   57   59 1    
   113   57  118 1    
   114   58  119 1    
   115   58  120 1    
   116   58  121 1    
   117   59   60 am   BACKBONE|DICT|INTERRES
   118   59  122 1    
   119   60   61 2    
   120   60   62 1    
   121   62   63 1    
   122   62   64 1    
   123   62  123 1    
   124   63  124 1    
   125   63  125 1    
   126   63  126 1    
   127   64   65 am   BACKBONE|DICT|INTERRES
   128   64  127 1    
   129   65   66 2    
@<TRIPOS>SUBSTRUCTURE
     1 UNK         1 GROUP             0       ****    0 ROOT    
