@<TRIPOS>MOLECULE
3R135
127   129    1
SMALL
USER_CHARGES


@<TRIPOS>ATOM
      1 CA        -81.1236   22.0932  -72.3704 C.3       0 UNK        -0.1998 
      2 C         -81.5887   23.5097  -72.6715 C.2       0 UNK         0.4909 
      3 O         -82.1995   23.7442  -73.7154 O.2       0 UNK        -0.5240 
      4 N         -81.3033   24.4569  -71.7667 N.am      1 UNK        -0.4739 
      5 CA        -81.6045   25.8847  -71.9172 C.3       1 UNK         0.0864 
      6 C6        -81.2996   26.6589  -70.6095 C.3       11 UNK        -0.0881 
      7 S7        -81.9432   28.3710  -70.6256 S.3       11 UNK        -0.2682 
      8 C8        -80.5652   29.3296  -69.9020 C.3       11 UNK         0.0289 
      9 C9        -79.2547   29.1543  -70.6600 C.ar      11 UNK        -0.0687 
     10 C10       -79.1720   29.4849  -72.0162 C.ar      11 UNK        -0.0823 
     11 C11       -77.9955   29.2528  -72.7343 C.ar      11 UNK        -0.0830 
     12 C12       -76.8951   28.6940  -72.0768 C.ar      11 UNK        -0.1021 
     13 C13       -76.9397   28.4219  -70.7091 C.ar      11 UNK        -0.0753 
     14 C14       -78.1273   28.6448  -70.0064 C.ar      11 UNK        -0.0933 
     15 C15       -75.7101   27.8795  -69.9953 C.3       11 UNK         0.0166 
     16 S16       -74.7135   29.2332  -69.2870 S.3       11 UNK        -0.2615 
     17 C17       -73.3080   29.3609  -70.4507 C.3       11 UNK        -0.0865 
     18 CA        -73.6030   30.2407  -71.7049 C.3       10 UNK         0.0862 
     19 C         -73.5583   31.7752  -71.4527 C.2       10 UNK         0.5551 
     20 N         -73.5644   32.5921  -72.5002 N.am      10 UNK        -0.7319 
     21 O         -73.4950   32.2408  -70.3177 O.2       10 UNK        -0.5018 
     22 N         -72.7814   29.8753  -72.8692 N.am      10 UNK        -0.4509 
     23 C         -72.7965   28.7091  -73.5236 C.2       10 UNK         0.4899 
     24 O         -73.5130   27.7557  -73.2141 O.2       10 UNK        -0.4839 
     25 CA        -71.8333   28.5841  -74.7172 C.3       9 UNK         0.0222 
     26 CB        -70.4060   29.0569  -74.3540 C.3       9 UNK        -0.1966 
     27 N         -71.8034   27.1925  -75.1690 N.am      9 UNK        -0.4218 
     28 C         -71.2670   26.7401  -76.3095 C.2       9 UNK         0.5020 
     29 O         -70.8218   27.4711  -77.1954 O.2       9 UNK        -0.5274 
     30 CA        -71.1557   25.2181  -76.4758 C.3       8 UNK         0.0270 
     31 CB        -70.7983   24.4890  -75.1636 C.3       8 UNK        -0.1976 
     32 N         -72.3886   24.6658  -77.0285 N.am      8 UNK        -0.4313 
     33 C         -72.4479   23.6268  -77.8709 C.2       8 UNK         0.5041 
     34 O         -71.4556   23.0641  -78.3375 O.2       8 UNK        -0.5577 
     35 CA        -73.8445   23.1014  -78.2439 C.3       7 UNK         0.0284 
     36 CB        -74.3950   22.1988  -77.1278 C.3       7 UNK        -0.1958 
     37 N         -74.8073   24.1646  -78.5310 N.am      7 UNK        -0.4454 
     38 C         -74.7799   24.9440  -79.6213 C.2       7 UNK         0.5089 
     39 O         -73.9477   24.8389  -80.5228 O.2       7 UNK        -0.5125 
     40 CA        -75.8620   26.0336  -79.7167 C.3       6 UNK         0.0408 
     41 CB        -77.1867   25.4544  -80.2391 C.3       6 UNK        -0.1791 
     42 N         -76.0803   26.6952  -78.4294 N.am      6 UNK        -0.4762 
     43 C         -75.2069   27.5447  -77.8676 C.2       6 UNK         0.5007 
     44 O         -74.1832   27.9381  -78.4258 O.2       6 UNK        -0.5032 
     45 CA        -75.5116   28.0239  -76.4371 C.3       5 UNK         0.0783 
     46 C46       -76.2733   29.3716  -76.4663 C.3       11 UNK        -0.0857 
     47 S47       -76.3443   30.1502  -74.8214 S.3       11 UNK        -0.2512 
     48 C48       -77.9569   29.5379  -74.2298 C.3       11 UNK         0.0225 
     49 N         -76.2054   26.9906  -75.6575 N.am      5 UNK        -0.4615 
     50 C         -75.6240   25.8689  -75.2102 C.2       4 UNK         0.5053 
     51 O         -74.4414   25.5932  -75.4004 O.2       4 UNK        -0.5105 
     52 CA        -76.5178   24.8469  -74.4895 C.3       4 UNK         0.0263 
     53 CB        -76.5703   25.1282  -72.9813 C.3       4 UNK        -0.1981 
     54 N         -77.8737   24.7885  -75.0421 N.am      4 UNK        -0.4224 
     55 C         -78.1492   24.3476  -76.2803 C.2       3 UNK         0.4895 
     56 O         -77.2869   23.9323  -77.0541 O.2       3 UNK        -0.5091 
     57 CA        -79.6086   24.4019  -76.7669 C.3       3 UNK         0.0250 
     58 CB        -80.2775   23.0288  -76.6020 C.3       3 UNK        -0.1996 
     59 N         -80.4213   25.4238  -76.1044 N.am      3 UNK        -0.4254 
     60 C         -80.1983   26.7445  -76.1782 C.2       2 UNK         0.5004 
     61 O         -79.2930   27.2482  -76.8449 O.2       2 UNK        -0.5226 
     62 CA        -81.1017   27.6565  -75.3252 C.3       2 UNK         0.0269 
     63 CB        -82.2948   28.1498  -76.1582 C.3       2 UNK        -0.1926 
     64 N         -81.5985   27.0535  -74.0807 N.am      2 UNK        -0.4687 
     65 C         -80.8521   26.4608  -73.1356 C.2       1 UNK         0.5165 
     66 O         -79.6314   26.3139  -73.2172 O.2       1 UNK        -0.5079 
     67 H67       -80.6418   22.0207  -71.3956 H         1 UNK         0.0900 
     68 H68       -81.9723   21.4099  -72.3806 H         1 UNK         0.0900 
     69 H69       -80.4113   21.7639  -73.1263 H         1 UNK         0.0900 
     70 H70       -80.7765   24.2066  -70.9423 H         1 UNK         0.2959 
     71 H71       -82.6776   25.9590  -72.1073 H         1 UNK         0.1079 
     72 H72       -80.2279   26.6505  -70.4053 H         1 UNK         0.0837 
     73 H73       -81.7654   26.1512  -69.7635 H         1 UNK         0.0837 
     74 H74       -80.8341   30.3866  -69.8990 H         1 UNK         0.0685 
     75 H75       -80.4506   29.0386  -68.8567 H         1 UNK         0.0685 
     76 H76       -80.0426   29.8823  -72.5196 H         1 UNK         0.1434 
     77 H77       -75.9967   28.4651  -72.6319 H         1 UNK         0.1329 
     78 H78       -78.1742   28.4100  -68.9518 H         1 UNK         0.1335 
     79 H79       -75.1100   27.2748  -70.6773 H         1 UNK         0.0680 
     80 H80       -76.0179   27.2113  -69.1897 H         1 UNK         0.0680 
     81 H81       -73.0267   28.3468  -70.7333 H         1 UNK         0.1032 
     82 H82       -72.4421   29.7491  -69.9119 H         1 UNK         0.1032 
     83 H83       -74.6320   30.0620  -72.0028 H         1 UNK         0.0461 
     84 H84       -73.6773   32.2362  -73.4363 H         1 UNK         0.3453 
     85 H85       -73.5267   33.5873  -72.3438 H         1 UNK         0.3453 
     86 H86       -72.1552   30.6037  -73.1830 H         1 UNK         0.2984 
     87 H87       -72.2265   29.2027  -75.5262 H         1 UNK         0.0554 
     88 H88       -70.3847   30.1131  -74.0852 H         1 UNK         0.0847 
     89 H89       -69.7163   28.9407  -75.1897 H         1 UNK         0.0847 
     90 H90       -70.0010   28.4947  -73.5115 H         1 UNK         0.0847 
     91 H91       -72.2647   26.5434  -74.5408 H         1 UNK         0.3141 
     92 H92       -70.3375   25.0521  -77.1802 H         1 UNK         0.0743 
     93 H93       -71.6229   24.5013  -74.4497 H         1 UNK         0.0784 
     94 H94       -70.5452   23.4458  -75.3537 H         1 UNK         0.0784 
     95 H95       -69.9333   24.9468  -74.6816 H         1 UNK         0.0784 
     96 H96       -73.2523   25.0561  -76.6515 H         1 UNK         0.3213 
     97 H97       -73.7390   22.4941  -79.1457 H         1 UNK         0.0855 
     98 H98       -74.5345   22.7485  -76.1966 H         1 UNK         0.0814 
     99 H99       -73.7121   21.3738  -76.9206 H         1 UNK         0.0814 
    100 H100      -75.3552   21.7639  -77.4060 H         1 UNK         0.0814 
    101 H101      -75.5819   24.2683  -77.8805 H         1 UNK         0.3105 
    102 H102      -75.5208   26.7841  -80.4332 H         1 UNK         0.0547 
    103 H103      -77.0514   25.0099  -81.2259 H         1 UNK         0.0837 
    104 H104      -77.5799   24.6755  -79.5860 H         1 UNK         0.0837 
    105 H105      -77.9485   26.2282  -80.3346 H         1 UNK         0.0837 
    106 H106      -76.9023   26.4279  -77.9052 H         1 UNK         0.3020 
    107 H107      -74.5438   28.1961  -75.9626 H         1 UNK         0.1245 
    108 H108      -77.2802   29.2492  -76.8705 H         1 UNK         0.0781 
    109 H109      -75.7691   30.0800  -77.1269 H         1 UNK         0.0781 
    110 H110      -78.2069   28.6089  -74.7371 H         1 UNK         0.0836 
    111 H111      -78.7226   30.2640  -74.5069 H         1 UNK         0.0836 
    112 H112      -77.1948   27.1206  -75.5058 H         1 UNK         0.3022 
    113 H113      -76.0619   23.8643  -74.6258 H         1 UNK         0.0747 
    114 H114      -77.1085   24.3437  -72.4495 H         1 UNK         0.0793 
    115 H115      -75.5664   25.1832  -72.5576 H         1 UNK         0.0793 
    116 H116      -77.0651   26.0735  -72.7667 H         1 UNK         0.0793 
    117 H117      -78.6188   25.1680  -74.4636 H         1 UNK         0.3047 
    118 H118      -79.5843   24.6431  -77.8317 H         1 UNK         0.0822 
    119 H119      -81.2911   23.0285  -77.0030 H         1 UNK         0.0807 
    120 H120      -80.3307   22.7295  -75.5550 H         1 UNK         0.0807 
    121 H121      -79.7190   22.2567  -77.1333 H         1 UNK         0.0807 
    122 H122      -81.1668   25.0953  -75.5036 H         1 UNK         0.2946 
    123 H123      -80.5100   28.5271  -75.0437 H         1 UNK         0.1144 
    124 H124      -81.9575   28.6258  -77.0804 H         1 UNK         0.0793 
    125 H125      -82.8830   28.8883  -75.6130 H         1 UNK         0.0793 
    126 H126      -82.9581   27.3304  -76.4382 H         1 UNK         0.0793 
    127 H127      -82.5965   27.1056  -73.9346 H         1 UNK         0.2896 
@<TRIPOS>BOND
     1    1    2 1    
     2    1   67 1    
     3    1   68 1    
     4    1   69 1    
     5    2    3 2    
     6    2    4 am   BACKBONE|DICT|INTERRES
     7    4    5 1    
     8    4   70 1    
     9    5    6 1    
    10    5   65 1    
    11    5   71 1    
    12    6    7 1    
    13    6   72 1    
    14    6   73 1    
    15    7    8 1    
    16    8    9 1    
    17    8   74 1    
    18    8   75 1    
    19    9   10 ar   
    20    9   14 ar   
    21   10   11 ar   
    22   10   76 1    
    23   11   12 ar   
    24   11   48 1    
    25   12   13 ar   
    26   12   77 1    
    27   13   14 ar   
    28   13   15 1    
    29   14   78 1    
    30   15   16 1    
    31   15   79 1    
    32   15   80 1    
    33   16   17 1    
    34   17   18 1    
    35   17   81 1    
    36   17   82 1    
    37   18   19 1    
    38   18   22 1    
    39   18   83 1    
    40   19   20 am   BACKBONE|DICT|INTERRES
    41   19   21 2    
    42   20   84 1    
    43   20   85 1    
    44   22   23 am   BACKBONE|DICT|INTERRES
    45   22   86 1    
    46   23   24 2    
    47   23   25 1    
    48   25   26 1    
    49   25   27 1    
    50   25   87 1    
    51   26   88 1    
    52   26   89 1    
    53   26   90 1    
    54   27   28 am   BACKBONE|DICT|INTERRES
    55   27   91 1    
    56   28   29 2    
    57   28   30 1    
    58   30   31 1    
    59   30   32 1    
    60   30   92 1    
    61   31   93 1    
    62   31   94 1    
    63   31   95 1    
    64   32   33 am   BACKBONE|DICT|INTERRES
    65   32   96 1    
    66   33   34 2    
    67   33   35 1    
    68   35   36 1    
    69   35   37 1    
    70   35   97 1    
    71   36   98 1    
    72   36   99 1    
    73   36  100 1    
    74   37   38 am   BACKBONE|DICT|INTERRES
    75   37  101 1    
    76   38   39 2    
    77   38   40 1    
    78   40   41 1    
    79   40   42 1    
    80   40  102 1    
    81   41  103 1    
    82   41  104 1    
    83   41  105 1    
    84   42   43 am   BACKBONE|DICT|INTERRES
    85   42  106 1    
    86   43   44 2    
    87   43   45 1    
    88   45   46 1    
    89   45   49 1    
    90   45  107 1    
    91   46   47 1    
    92   46  108 1    
    93   46  109 1    
    94   47   48 1    
    95   48  110 1    
    96   48  111 1    
    97   49   50 am   BACKBONE|DICT|INTERRES
    98   49  112 1    
    99   50   51 2    
   100   50   52 1    
   101   52   53 1    
   102   52   54 1    
   103   52  113 1    
   104   53  114 1    
   105   53  115 1    
   106   53  116 1    
   107   54   55 am   BACKBONE|DICT|INTERRES
   108   54  117 1    
   109   55   56 2    
   110   55   57 1    
   111   57   58 1    
   112   57   59 1    
   113   57  118 1    
   114   58  119 1    
   115   58  120 1    
   116   58  121 1    
   117   59   60 am   BACKBONE|DICT|INTERRES
   118   59  122 1    
   119   60   61 2    
   120   60   62 1    
   121   62   63 1    
   122   62   64 1    
   123   62  123 1    
   124   63  124 1    
   125   63  125 1    
   126   63  126 1    
   127   64   65 am   BACKBONE|DICT|INTERRES
   128   64  127 1    
   129   65   66 2    
@<TRIPOS>SUBSTRUCTURE
     1 UNK         1 GROUP             0       ****    0 ROOT    
