@<TRIPOS>MOLECULE
3R135
127   129    1
SMALL
USER_CHARGES


@<TRIPOS>ATOM
      1 CA        -84.8674   25.0741  -73.1874 C.3       0 UNK        -0.1998 
      2 C         -83.6523   25.9263  -73.5200 C.2       0 UNK         0.4909 
      3 O         -83.6891   26.7033  -74.4746 O.2       0 UNK        -0.5240 
      4 N         -82.5643   25.7777  -72.7535 N.am      1 UNK        -0.4739 
      5 CA        -81.3069   26.5312  -72.8763 C.3       1 UNK         0.0864 
      6 C6        -80.5467   26.5717  -71.5235 C.3       11 UNK        -0.0881 
      7 S7        -81.4513   27.5804  -70.2985 S.3       11 UNK        -0.2682 
      8 C8        -80.1036   28.4428  -69.4125 C.3       11 UNK         0.0289 
      9 C9        -79.1521   29.2640  -70.2856 C.ar      11 UNK        -0.0687 
     10 C10       -79.5594   29.8581  -71.4871 C.ar      11 UNK        -0.0823 
     11 C11       -78.6507   30.5719  -72.2758 C.ar      11 UNK        -0.0830 
     12 C12       -77.3313   30.7233  -71.8384 C.ar      11 UNK        -0.1021 
     13 C13       -76.9134   30.1483  -70.6359 C.ar      11 UNK        -0.0753 
     14 C14       -77.8290   29.4270  -69.8648 C.ar      11 UNK        -0.0933 
     15 C15       -75.4753   30.3052  -70.1632 C.3       11 UNK         0.0166 
     16 S16       -74.5997   28.7096  -70.1070 S.3       11 UNK        -0.2615 
     17 C17       -74.3670   28.3348  -71.8791 C.3       11 UNK        -0.0865 
     18 CA        -72.8990   28.5305  -72.3347 C.3       10 UNK         0.0862 
     19 C         -71.9429   27.4637  -71.7367 C.2       10 UNK         0.5551 
     20 N         -71.0039   27.8663  -70.8916 N.am      10 UNK        -0.7319 
     21 O         -72.0686   26.2735  -72.0149 O.2       10 UNK        -0.5018 
     22 N         -72.7967   28.5205  -73.7976 N.am      10 UNK        -0.4509 
     23 C         -71.8439   29.1656  -74.4846 C.2       10 UNK         0.4899 
     24 O         -71.0415   29.9490  -73.9738 O.2       10 UNK        -0.4839 
     25 CA        -71.7842   28.8798  -75.9978 C.3       9 UNK         0.0222 
     26 CB        -70.5216   29.4487  -76.6790 C.3       9 UNK        -0.1966 
     27 N         -71.9482   27.4540  -76.2977 N.am      9 UNK        -0.4218 
     28 C         -71.1721   26.4303  -75.9036 C.2       9 UNK         0.5020 
     29 O         -70.1119   26.5643  -75.2917 O.2       9 UNK        -0.5274 
     30 CA        -71.6672   25.0102  -76.2367 C.3       8 UNK         0.0270 
     31 CB        -71.8863   24.1957  -74.9494 C.3       8 UNK        -0.1976 
     32 N         -72.9222   25.0432  -76.9945 N.am      8 UNK        -0.4313 
     33 C         -73.0608   24.6641  -78.2710 C.2       8 UNK         0.5041 
     34 O         -72.1644   24.1497  -78.9410 O.2       8 UNK        -0.5577 
     35 CA        -74.4282   24.9309  -78.9214 C.3       7 UNK         0.0284 
     36 CB        -75.4630   23.8940  -78.4564 C.3       7 UNK        -0.1958 
     37 N         -74.9400   26.2796  -78.6625 N.am      7 UNK        -0.4454 
     38 C         -74.3758   27.4290  -79.0567 C.2       7 UNK         0.5089 
     39 O         -73.3271   27.4876  -79.6971 O.2       7 UNK        -0.5125 
     40 CA        -75.0709   28.7456  -78.6488 C.3       6 UNK         0.0408 
     41 CB        -76.1308   29.1570  -79.6888 C.3       6 UNK        -0.1791 
     42 N         -75.6164   28.7574  -77.2809 N.am      6 UNK        -0.4762 
     43 C         -76.6220   28.0250  -76.7810 C.2       6 UNK         0.5007 
     44 O         -77.2976   27.2386  -77.4472 O.2       6 UNK        -0.5032 
     45 CA        -76.8689   28.1215  -75.2640 C.3       5 UNK         0.0783 
     46 C46       -78.2213   28.8085  -74.9512 C.3       11 UNK        -0.0857 
     47 S47       -78.0759   30.6270  -75.0176 S.3       11 UNK        -0.2512 
     48 C48       -79.0995   31.1679  -73.6052 C.3       11 UNK         0.0225 
     49 N         -76.7794   26.7854  -74.6681 N.am      5 UNK        -0.4615 
     50 C         -75.6721   26.0305  -74.6495 C.2       4 UNK         0.5053 
     51 O         -74.5818   26.4281  -75.0656 O.2       4 UNK        -0.5105 
     52 CA        -75.7823   24.5992  -74.1045 C.3       4 UNK         0.0263 
     53 CB        -75.5778   24.5764  -72.5821 C.3       4 UNK        -0.1981 
     54 N         -77.0678   23.9810  -74.4375 N.am      4 UNK        -0.4224 
     55 C         -77.2173   22.7645  -74.9837 C.2       3 UNK         0.4895 
     56 O         -76.2802   22.0076  -75.2394 O.2       3 UNK        -0.5091 
     57 CA        -78.6527   22.2987  -75.3042 C.3       3 UNK         0.0250 
     58 CB        -79.1938   21.4120  -74.1710 C.3       3 UNK        -0.1996 
     59 N         -79.5835   23.4061  -75.5306 N.am      3 UNK        -0.4254 
     60 C         -79.5245   24.2520  -76.5676 C.2       2 UNK         0.5004 
     61 O         -78.7875   24.0788  -77.5375 O.2       2 UNK        -0.5226 
     62 CA        -80.4133   25.5116  -76.5195 C.3       2 UNK         0.0269 
     63 CB        -81.5231   25.4230  -77.5801 C.3       2 UNK        -0.1926 
     64 N         -81.0318   25.8407  -75.2251 N.am      2 UNK        -0.4687 
     65 C         -80.4275   26.0226  -74.0424 C.2       1 UNK         0.5165 
     66 O         -79.2293   25.8003  -73.8600 O.2       1 UNK        -0.5079 
     67 H67       -85.7190   25.7130  -72.9540 H         1 UNK         0.0900 
     68 H68       -85.1334   24.4492  -74.0403 H         1 UNK         0.0900 
     69 H69       -84.6869   24.4227  -72.3321 H         1 UNK         0.0900 
     70 H70       -82.5922   25.1144  -71.9919 H         1 UNK         0.2959 
     71 H71       -81.5544   27.5620  -73.1412 H         1 UNK         0.1079 
     72 H72       -79.5462   26.9880  -71.6496 H         1 UNK         0.0837 
     73 H73       -80.4024   25.5657  -71.1256 H         1 UNK         0.0837 
     74 H74       -80.5482   29.1060  -68.6697 H         1 UNK         0.0685 
     75 H75       -79.5395   27.6921  -68.8566 H         1 UNK         0.0685 
     76 H76       -80.5823   29.7518  -71.8195 H         1 UNK         0.1434 
     77 H77       -76.6283   31.2792  -72.4439 H         1 UNK         0.1329 
     78 H78       -77.5010   28.9798  -68.9360 H         1 UNK         0.1335 
     79 H79       -75.4773   30.7403  -69.1628 H         1 UNK         0.0680 
     80 H80       -74.9224   30.9988  -70.7990 H         1 UNK         0.0680 
     81 H81       -75.0274   28.9737  -72.4661 H         1 UNK         0.1032 
     82 H82       -74.7019   27.3152  -72.0660 H         1 UNK         0.1032 
     83 H83       -72.5870   29.5166  -71.9828 H         1 UNK         0.0461 
     84 H84       -70.3831   27.1833  -70.4871 H         1 UNK         0.3453 
     85 H85       -70.9011   28.8411  -70.6563 H         1 UNK         0.3453 
     86 H86       -73.3594   27.8259  -74.2780 H         1 UNK         0.2984 
     87 H87       -72.6458   29.3849  -76.4359 H         1 UNK         0.0554 
     88 H88       -70.4678   30.5315  -76.5599 H         1 UNK         0.0847 
     89 H89       -70.5210   29.2410  -77.7490 H         1 UNK         0.0847 
     90 H90       -69.6078   29.0309  -76.2555 H         1 UNK         0.0847 
     91 H91       -72.7897   27.2104  -76.7971 H         1 UNK         0.3141 
     92 H92       -70.8800   24.5259  -76.8180 H         1 UNK         0.0743 
     93 H93       -70.9532   24.0824  -74.3959 H         1 UNK         0.0784 
     94 H94       -72.5983   24.6806  -74.2807 H         1 UNK         0.0784 
     95 H95       -72.2573   23.1944  -75.1690 H         1 UNK         0.0784 
     96 H96       -73.7167   25.4446  -76.5045 H         1 UNK         0.3213 
     97 H97       -74.3045   24.8279  -80.0016 H         1 UNK         0.0855 
     98 H98       -75.6863   23.9907  -77.3934 H         1 UNK         0.0814 
     99 H99       -75.1046   22.8774  -78.6235 H         1 UNK         0.0814 
    100 H100      -76.4009   23.9994  -79.0021 H         1 UNK         0.0814 
    101 H101      -75.8333   26.3547  -78.1802 H         1 UNK         0.3105 
    102 H102      -74.2979   29.5160  -78.6564 H         1 UNK         0.0547 
    103 H103      -76.5824   30.1163  -79.4367 H         1 UNK         0.0837 
    104 H104      -76.9313   28.4218  -79.7744 H         1 UNK         0.0837 
    105 H105      -75.6829   29.2600  -80.6780 H         1 UNK         0.0837 
    106 H106      -75.1309   29.3742  -76.6448 H         1 UNK         0.3020 
    107 H107      -76.0687   28.7105  -74.8106 H         1 UNK         0.1245 
    108 H108      -78.5503   28.5221  -73.9526 H         1 UNK         0.0781 
    109 H109      -79.0148   28.4820  -75.6261 H         1 UNK         0.0781 
    110 H110      -80.1399   30.9142  -73.8146 H         1 UNK         0.0836 
    111 H111      -79.0575   32.2556  -73.5359 H         1 UNK         0.0836 
    112 H112      -77.6540   26.4023  -74.3172 H         1 UNK         0.3022 
    113 H113      -74.9711   24.0303  -74.5631 H         1 UNK         0.0747 
    114 H114      -75.6395   23.5605  -72.1916 H         1 UNK         0.0793 
    115 H115      -74.5927   24.9613  -72.3160 H         1 UNK         0.0793 
    116 H116      -76.3239   25.1801  -72.0633 H         1 UNK         0.0793 
    117 H117      -77.9009   24.5356  -74.2600 H         1 UNK         0.3047 
    118 H118      -78.6075   21.7020  -76.2180 H         1 UNK         0.0822 
    119 H119      -80.1790   21.0135  -74.4140 H         1 UNK         0.0807 
    120 H120      -79.2740   21.9607  -73.2316 H         1 UNK         0.0807 
    121 H121      -78.5358   20.5596  -73.9952 H         1 UNK         0.0807 
    122 H122      -80.2256   23.6242  -74.7829 H         1 UNK         0.2946 
    123 H123      -79.7614   26.3472  -76.7815 H         1 UNK         0.1144 
    124 H124      -82.2304   24.6239  -77.3550 H         1 UNK         0.0793 
    125 H125      -81.1078   25.2237  -78.5692 H         1 UNK         0.0793 
    126 H126      -82.0818   26.3565  -77.6498 H         1 UNK         0.0793 
    127 H127      -82.0249   26.0566  -75.2494 H         1 UNK         0.2896 
@<TRIPOS>BOND
     1    1    2 1    
     2    1   67 1    
     3    1   68 1    
     4    1   69 1    
     5    2    3 2    
     6    2    4 am   BACKBONE|DICT|INTERRES
     7    4    5 1    
     8    4   70 1    
     9    5    6 1    
    10    5   65 1    
    11    5   71 1    
    12    6    7 1    
    13    6   72 1    
    14    6   73 1    
    15    7    8 1    
    16    8    9 1    
    17    8   74 1    
    18    8   75 1    
    19    9   10 ar   
    20    9   14 ar   
    21   10   11 ar   
    22   10   76 1    
    23   11   12 ar   
    24   11   48 1    
    25   12   13 ar   
    26   12   77 1    
    27   13   14 ar   
    28   13   15 1    
    29   14   78 1    
    30   15   16 1    
    31   15   79 1    
    32   15   80 1    
    33   16   17 1    
    34   17   18 1    
    35   17   81 1    
    36   17   82 1    
    37   18   19 1    
    38   18   22 1    
    39   18   83 1    
    40   19   20 am   BACKBONE|DICT|INTERRES
    41   19   21 2    
    42   20   84 1    
    43   20   85 1    
    44   22   23 am   BACKBONE|DICT|INTERRES
    45   22   86 1    
    46   23   24 2    
    47   23   25 1    
    48   25   26 1    
    49   25   27 1    
    50   25   87 1    
    51   26   88 1    
    52   26   89 1    
    53   26   90 1    
    54   27   28 am   BACKBONE|DICT|INTERRES
    55   27   91 1    
    56   28   29 2    
    57   28   30 1    
    58   30   31 1    
    59   30   32 1    
    60   30   92 1    
    61   31   93 1    
    62   31   94 1    
    63   31   95 1    
    64   32   33 am   BACKBONE|DICT|INTERRES
    65   32   96 1    
    66   33   34 2    
    67   33   35 1    
    68   35   36 1    
    69   35   37 1    
    70   35   97 1    
    71   36   98 1    
    72   36   99 1    
    73   36  100 1    
    74   37   38 am   BACKBONE|DICT|INTERRES
    75   37  101 1    
    76   38   39 2    
    77   38   40 1    
    78   40   41 1    
    79   40   42 1    
    80   40  102 1    
    81   41  103 1    
    82   41  104 1    
    83   41  105 1    
    84   42   43 am   BACKBONE|DICT|INTERRES
    85   42  106 1    
    86   43   44 2    
    87   43   45 1    
    88   45   46 1    
    89   45   49 1    
    90   45  107 1    
    91   46   47 1    
    92   46  108 1    
    93   46  109 1    
    94   47   48 1    
    95   48  110 1    
    96   48  111 1    
    97   49   50 am   BACKBONE|DICT|INTERRES
    98   49  112 1    
    99   50   51 2    
   100   50   52 1    
   101   52   53 1    
   102   52   54 1    
   103   52  113 1    
   104   53  114 1    
   105   53  115 1    
   106   53  116 1    
   107   54   55 am   BACKBONE|DICT|INTERRES
   108   54  117 1    
   109   55   56 2    
   110   55   57 1    
   111   57   58 1    
   112   57   59 1    
   113   57  118 1    
   114   58  119 1    
   115   58  120 1    
   116   58  121 1    
   117   59   60 am   BACKBONE|DICT|INTERRES
   118   59  122 1    
   119   60   61 2    
   120   60   62 1    
   121   62   63 1    
   122   62   64 1    
   123   62  123 1    
   124   63  124 1    
   125   63  125 1    
   126   63  126 1    
   127   64   65 am   BACKBONE|DICT|INTERRES
   128   64  127 1    
   129   65   66 2    
@<TRIPOS>SUBSTRUCTURE
     1 UNK         1 GROUP             0       ****    0 ROOT    
