@<TRIPOS>MOLECULE
3R135
127   129    1
SMALL
USER_CHARGES


@<TRIPOS>ATOM
      1 CA        -77.9865   26.8957  -78.7131 C.3       0 UNK        -0.1998 
      2 C         -78.3640   26.8576  -77.2407 C.2       0 UNK         0.4909 
      3 O         -78.3255   25.7888  -76.6258 O.2       0 UNK        -0.5240 
      4 N         -78.7334   28.0149  -76.6740 N.am      1 UNK        -0.4739 
      5 CA        -79.1690   28.1659  -75.2826 C.3       1 UNK         0.0864 
      6 C6        -79.2559   29.6625  -74.8811 C.3       11 UNK        -0.0881 
      7 S7        -79.8972   29.9657  -73.1946 S.3       11 UNK        -0.2682 
      8 C8        -78.3820   30.3162  -72.2421 C.3       11 UNK         0.0289 
      9 C9        -77.4543   29.1136  -72.0970 C.ar      11 UNK        -0.0687 
     10 C10       -77.9505   27.8526  -71.7465 C.ar      11 UNK        -0.0823 
     11 C11       -77.0949   26.7548  -71.6037 C.ar      11 UNK        -0.0830 
     12 C12       -75.7172   26.9430  -71.7808 C.ar      11 UNK        -0.1021 
     13 C13       -75.2081   28.1948  -72.1357 C.ar      11 UNK        -0.0753 
     14 C14       -76.0796   29.2759  -72.2836 C.ar      11 UNK        -0.0933 
     15 C15       -73.7211   28.3792  -72.3888 C.3       11 UNK         0.0166 
     16 S16       -72.8851   29.0865  -70.9398 S.3       11 UNK        -0.2615 
     17 C17       -71.2454   29.4711  -71.6449 C.3       11 UNK        -0.0865 
     18 CA        -71.0194   30.9960  -71.8243 C.3       10 UNK         0.0862 
     19 C         -69.5442   31.3028  -72.2149 C.2       10 UNK         0.5551 
     20 N         -69.2702   31.9071  -73.3652 N.am      10 UNK        -0.7319 
     21 O         -68.6312   30.9940  -71.4530 O.2       10 UNK        -0.5018 
     22 N         -72.0117   31.5951  -72.7332 N.am      10 UNK        -0.4509 
     23 C         -72.4598   32.8529  -72.6627 C.2       10 UNK         0.4899 
     24 O         -72.1218   33.6449  -71.7825 O.2       10 UNK        -0.4839 
     25 CA        -73.4608   33.3305  -73.7363 C.3       9 UNK         0.0222 
     26 CB        -72.7539   34.2158  -74.7824 C.3       9 UNK        -0.1966 
     27 N         -74.2693   32.2848  -74.3885 N.am      9 UNK        -0.4218 
     28 C         -73.8649   31.2951  -75.1967 C.2       9 UNK         0.5020 
     29 O         -72.6846   31.0735  -75.4805 O.2       9 UNK        -0.5274 
     30 CA        -74.9657   30.3894  -75.7617 C.3       8 UNK         0.0270 
     31 CB        -75.7655   31.1009  -76.8670 C.3       8 UNK        -0.1976 
     32 N         -74.3523   29.1845  -76.3142 N.am      8 UNK        -0.4313 
     33 C         -74.7884   27.9396  -76.1139 C.2       8 UNK         0.5041 
     34 O         -75.7728   27.6517  -75.4318 O.2       8 UNK        -0.5577 
     35 CA        -73.9867   26.8169  -76.7754 C.3       7 UNK         0.0284 
     36 CB        -72.8073   26.3849  -75.8857 C.3       7 UNK        -0.1958 
     37 N         -74.8960   25.6960  -76.9735 N.am      7 UNK        -0.4454 
     38 C         -74.7876   24.7306  -77.8915 C.2       7 UNK         0.5089 
     39 O         -73.8712   24.6681  -78.7129 O.2       7 UNK        -0.5125 
     40 CA        -75.9005   23.6606  -77.8812 C.3       6 UNK         0.0408 
     41 CB        -75.5076   22.3687  -78.6276 C.3       6 UNK        -0.1791 
     42 N         -76.3853   23.3616  -76.5271 N.am      6 UNK        -0.4762 
     43 C         -75.6649   22.8717  -75.5044 C.2       6 UNK         0.5007 
     44 O         -74.4830   22.5362  -75.5875 O.2       6 UNK        -0.5032 
     45 CA        -76.3840   22.7523  -74.1484 C.3       5 UNK         0.0783 
     46 C46       -76.3747   24.1161  -73.4159 C.3       11 UNK        -0.0857 
     47 S47       -76.6940   23.9264  -71.6309 S.3       11 UNK        -0.2512 
     48 C48       -77.7073   25.3981  -71.2450 C.3       11 UNK         0.0225 
     49 N         -77.7361   22.2078  -74.3074 N.am      5 UNK        -0.4615 
     50 C         -78.0047   20.9256  -74.5953 C.2       4 UNK         0.5053 
     51 O         -77.1484   20.0435  -74.6611 O.2       4 UNK        -0.5105 
     52 CA        -79.4769   20.5670  -74.8696 C.3       4 UNK         0.0263 
     53 CB        -80.1932   20.1919  -73.5625 C.3       4 UNK        -0.1981 
     54 N         -80.2087   21.6509  -75.5285 N.am      4 UNK        -0.4224 
     55 C         -79.9724   22.1055  -76.7664 C.2       3 UNK         0.4895 
     56 O         -79.1820   21.5775  -77.5479 O.2       3 UNK        -0.5091 
     57 CA        -80.6902   23.3973  -77.1923 C.3       3 UNK         0.0250 
     58 CB        -82.0141   23.0992  -77.9228 C.3       3 UNK        -0.1996 
     59 N         -80.8585   24.3692  -76.0998 N.am      3 UNK        -0.4254 
     60 C         -81.6826   24.3223  -75.0403 C.2       2 UNK         0.5004 
     61 O         -82.4596   23.3902  -74.8328 O.2       2 UNK        -0.5226 
     62 CA        -81.5802   25.4498  -73.9921 C.3       2 UNK         0.0269 
     63 CB        -81.4438   24.8654  -72.5744 C.3       2 UNK        -0.1926 
     64 N         -80.4611   26.3659  -74.2345 N.am      2 UNK        -0.4687 
     65 C         -80.4949   27.4017  -75.0824 C.2       1 UNK         0.5165 
     66 O         -81.4943   27.7302  -75.7258 O.2       1 UNK        -0.5079 
     67 H67       -78.4358   26.0535  -79.2386 H         1 UNK         0.0900 
     68 H68       -76.9052   26.8337  -78.8261 H         1 UNK         0.0900 
     69 H69       -78.3267   27.8126  -79.1939 H         1 UNK         0.0900 
     70 H70       -78.7682   28.8516  -77.2370 H         1 UNK         0.2959 
     71 H71       -78.4014   27.7041  -74.6568 H         1 UNK         0.1079 
     72 H72       -78.2724   30.1250  -74.9773 H         1 UNK         0.0837 
     73 H73       -79.9058   30.1972  -75.5763 H         1 UNK         0.0837 
     74 H74       -77.8633   31.1552  -72.7085 H         1 UNK         0.0685 
     75 H75       -78.6697   30.6497  -71.2444 H         1 UNK         0.0685 
     76 H76       -79.0129   27.7265  -71.5870 H         1 UNK         0.1434 
     77 H77       -75.0316   26.1177  -71.6555 H         1 UNK         0.1329 
     78 H78       -75.6800   30.2467  -72.5391 H         1 UNK         0.1335 
     79 H79       -73.2559   27.4263  -72.6457 H         1 UNK         0.0680 
     80 H80       -73.5780   29.0320  -73.2498 H         1 UNK         0.0680 
     81 H81       -71.1095   28.9478  -72.5932 H         1 UNK         0.1032 
     82 H82       -70.4992   29.0542  -70.9656 H         1 UNK         0.1032 
     83 H83       -71.1546   31.4500  -70.8405 H         1 UNK         0.0461 
     84 H84       -70.0130   32.1567  -73.9984 H         1 UNK         0.3453 
     85 H85       -68.3115   32.1049  -73.6049 H         1 UNK         0.3453 
     86 H86       -72.2664   31.0552  -73.5521 H         1 UNK         0.2984 
     87 H87       -74.1799   33.9621  -73.2123 H         1 UNK         0.0554 
     88 H88       -73.4657   34.6361  -75.4928 H         1 UNK         0.0847 
     89 H89       -72.0036   33.6624  -75.3476 H         1 UNK         0.0847 
     90 H90       -72.2437   35.0530  -74.3040 H         1 UNK         0.0847 
     91 H91       -75.2612   32.3570  -74.2081 H         1 UNK         0.3141 
     92 H92       -75.6419   30.1280  -74.9466 H         1 UNK         0.0743 
     93 H93       -75.1240   31.4103  -77.6932 H         1 UNK         0.0784 
     94 H94       -76.5402   30.4495  -77.2720 H         1 UNK         0.0784 
     95 H95       -76.2627   31.9937  -76.4859 H         1 UNK         0.0784 
     96 H96       -73.4736   29.3402  -76.7919 H         1 UNK         0.3213 
     97 H97       -73.6198   27.1642  -77.7438 H         1 UNK         0.0855 
     98 H98       -72.2312   25.5853  -76.3515 H         1 UNK         0.0814 
     99 H99       -73.1500   26.0263  -74.9141 H         1 UNK         0.0814 
    100 H100      -72.1238   27.2159  -75.7066 H         1 UNK         0.0814 
    101 H101      -75.7145   25.7281  -76.3742 H         1 UNK         0.3105 
    102 H102      -76.7466   24.0978  -78.4127 H         1 UNK         0.0547 
    103 H103      -74.6217   21.9026  -78.1959 H         1 UNK         0.0837 
    104 H104      -76.3169   21.6387  -78.6051 H         1 UNK         0.0837 
    105 H105      -75.2871   22.5750  -79.6755 H         1 UNK         0.0837 
    106 H106      -77.3370   23.6517  -76.3446 H         1 UNK         0.3020 
    107 H107      -75.8019   22.0429  -73.5545 H         1 UNK         0.1245 
    108 H108      -75.4008   24.6009  -73.5130 H         1 UNK         0.0781 
    109 H109      -77.0974   24.8036  -73.8602 H         1 UNK         0.0781 
    110 H110      -78.6638   25.2873  -71.7532 H         1 UNK         0.0836 
    111 H111      -77.9262   25.3916  -70.1766 H         1 UNK         0.0836 
    112 H112      -78.5012   22.8607  -74.2478 H         1 UNK         0.3022 
    113 H113      -79.4900   19.6994  -75.5328 H         1 UNK         0.0747 
    114 H114      -81.2167   19.8668  -73.7506 H         1 UNK         0.0793 
    115 H115      -79.6809   19.3708  -73.0589 H         1 UNK         0.0793 
    116 H116      -80.2302   21.0303  -72.8656 H         1 UNK         0.0793 
    117 H117      -80.9372   22.1169  -74.9968 H         1 UNK         0.3047 
    118 H118      -80.0305   23.8882  -77.9100 H         1 UNK         0.0822 
    119 H119      -82.5002   24.0173  -78.2526 H         1 UNK         0.0807 
    120 H120      -82.7177   22.5525  -77.2946 H         1 UNK         0.0807 
    121 H121      -81.8362   22.4896  -78.8096 H         1 UNK         0.0807 
    122 H122      -80.1938   25.1356  -76.1321 H         1 UNK         0.2946 
    123 H123      -82.5155   26.0128  -74.0384 H         1 UNK         0.1144 
    124 H124      -81.3231   25.6502  -71.8272 H         1 UNK         0.0793 
    125 H125      -80.5955   24.1851  -72.4959 H         1 UNK         0.0793 
    126 H126      -82.3348   24.2989  -72.2998 H         1 UNK         0.0793 
    127 H127      -79.5887   26.1457  -73.7778 H         1 UNK         0.2896 
@<TRIPOS>BOND
     1    1    2 1    
     2    1   67 1    
     3    1   68 1    
     4    1   69 1    
     5    2    3 2    
     6    2    4 am   BACKBONE|DICT|INTERRES
     7    4    5 1    
     8    4   70 1    
     9    5    6 1    
    10    5   65 1    
    11    5   71 1    
    12    6    7 1    
    13    6   72 1    
    14    6   73 1    
    15    7    8 1    
    16    8    9 1    
    17    8   74 1    
    18    8   75 1    
    19    9   10 ar   
    20    9   14 ar   
    21   10   11 ar   
    22   10   76 1    
    23   11   12 ar   
    24   11   48 1    
    25   12   13 ar   
    26   12   77 1    
    27   13   14 ar   
    28   13   15 1    
    29   14   78 1    
    30   15   16 1    
    31   15   79 1    
    32   15   80 1    
    33   16   17 1    
    34   17   18 1    
    35   17   81 1    
    36   17   82 1    
    37   18   19 1    
    38   18   22 1    
    39   18   83 1    
    40   19   20 am   BACKBONE|DICT|INTERRES
    41   19   21 2    
    42   20   84 1    
    43   20   85 1    
    44   22   23 am   BACKBONE|DICT|INTERRES
    45   22   86 1    
    46   23   24 2    
    47   23   25 1    
    48   25   26 1    
    49   25   27 1    
    50   25   87 1    
    51   26   88 1    
    52   26   89 1    
    53   26   90 1    
    54   27   28 am   BACKBONE|DICT|INTERRES
    55   27   91 1    
    56   28   29 2    
    57   28   30 1    
    58   30   31 1    
    59   30   32 1    
    60   30   92 1    
    61   31   93 1    
    62   31   94 1    
    63   31   95 1    
    64   32   33 am   BACKBONE|DICT|INTERRES
    65   32   96 1    
    66   33   34 2    
    67   33   35 1    
    68   35   36 1    
    69   35   37 1    
    70   35   97 1    
    71   36   98 1    
    72   36   99 1    
    73   36  100 1    
    74   37   38 am   BACKBONE|DICT|INTERRES
    75   37  101 1    
    76   38   39 2    
    77   38   40 1    
    78   40   41 1    
    79   40   42 1    
    80   40  102 1    
    81   41  103 1    
    82   41  104 1    
    83   41  105 1    
    84   42   43 am   BACKBONE|DICT|INTERRES
    85   42  106 1    
    86   43   44 2    
    87   43   45 1    
    88   45   46 1    
    89   45   49 1    
    90   45  107 1    
    91   46   47 1    
    92   46  108 1    
    93   46  109 1    
    94   47   48 1    
    95   48  110 1    
    96   48  111 1    
    97   49   50 am   BACKBONE|DICT|INTERRES
    98   49  112 1    
    99   50   51 2    
   100   50   52 1    
   101   52   53 1    
   102   52   54 1    
   103   52  113 1    
   104   53  114 1    
   105   53  115 1    
   106   53  116 1    
   107   54   55 am   BACKBONE|DICT|INTERRES
   108   54  117 1    
   109   55   56 2    
   110   55   57 1    
   111   57   58 1    
   112   57   59 1    
   113   57  118 1    
   114   58  119 1    
   115   58  120 1    
   116   58  121 1    
   117   59   60 am   BACKBONE|DICT|INTERRES
   118   59  122 1    
   119   60   61 2    
   120   60   62 1    
   121   62   63 1    
   122   62   64 1    
   123   62  123 1    
   124   63  124 1    
   125   63  125 1    
   126   63  126 1    
   127   64   65 am   BACKBONE|DICT|INTERRES
   128   64  127 1    
   129   65   66 2    
@<TRIPOS>SUBSTRUCTURE
     1 UNK         1 GROUP             0       ****    0 ROOT    
