@<TRIPOS>MOLECULE
3R135
127   129    1
SMALL
USER_CHARGES


@<TRIPOS>ATOM
      1 CA        -79.9362   20.6397  -71.9439 C.3       0 UNK        -0.1998 
      2 C         -80.6523   21.9498  -71.6530 C.2       0 UNK         0.4909 
      3 O         -81.6455   21.9582  -70.9256 O.2       0 UNK        -0.5240 
      4 N         -80.1572   23.0580  -72.2199 N.am      1 UNK        -0.4739 
      5 CA        -80.6935   24.4134  -72.0272 C.3       1 UNK         0.0864 
      6 C6        -79.6830   25.5086  -72.4575 C.3       11 UNK        -0.0881 
      7 S7        -78.0669   25.3973  -71.6146 S.3       11 UNK        -0.2682 
      8 C8        -78.1061   26.8639  -70.5329 C.3       11 UNK         0.0289 
      9 C9        -77.5236   28.1089  -71.1960 C.ar      11 UNK        -0.0687 
     10 C10       -78.1936   28.7434  -72.2464 C.ar      11 UNK        -0.0823 
     11 C11       -77.6844   29.9096  -72.8251 C.ar      11 UNK        -0.0830 
     12 C12       -76.5054   30.4665  -72.3191 C.ar      11 UNK        -0.1021 
     13 C13       -75.8337   29.8557  -71.2551 C.ar      11 UNK        -0.0753 
     14 C14       -76.3359   28.6675  -70.7141 C.ar      11 UNK        -0.0933 
     15 C15       -74.6034   30.5057  -70.6385 C.3       11 UNK         0.0166 
     16 S16       -73.0860   30.1330  -71.5680 S.3       11 UNK        -0.2615 
     17 C17       -72.9180   31.5865  -72.6665 C.3       11 UNK        -0.0865 
     18 CA        -73.2151   31.2766  -74.1641 C.3       10 UNK         0.0862 
     19 C         -73.1186   32.5313  -75.0845 C.2       10 UNK         0.5551 
     20 N         -73.6921   33.6569  -74.6782 N.am      10 UNK        -0.7319 
     21 O         -72.5687   32.4961  -76.1842 O.2       10 UNK        -0.5018 
     22 N         -72.4629   30.1223  -74.6760 N.am      10 UNK        -0.4509 
     23 C         -71.1333   29.9757  -74.7430 C.2       10 UNK         0.4899 
     24 O         -70.3190   30.8180  -74.3597 O.2       10 UNK        -0.4839 
     25 CA        -70.6452   28.6439  -75.3458 C.3       9 UNK         0.0222 
     26 CB        -69.1403   28.3800  -75.1250 C.3       9 UNK        -0.1966 
     27 N         -71.4668   27.5103  -74.9048 N.am      9 UNK        -0.4218 
     28 C         -71.5881   27.0034  -73.6672 C.2       9 UNK         0.5020 
     29 O         -70.9076   27.3553  -72.7031 O.2       9 UNK        -0.5274 
     30 CA        -72.6612   25.9135  -73.4621 C.3       8 UNK         0.0270 
     31 CB        -73.9068   26.5113  -72.7839 C.3       8 UNK        -0.1976 
     32 N         -73.0681   25.2502  -74.7048 N.am      8 UNK        -0.4313 
     33 C         -72.2914   24.4349  -75.4326 C.2       8 UNK         0.5041 
     34 O         -71.1664   24.0698  -75.0897 O.2       8 UNK        -0.5577 
     35 CA        -72.8484   23.9873  -76.7933 C.3       7 UNK         0.0284 
     36 CB        -73.7452   22.7481  -76.6407 C.3       7 UNK        -0.1958 
     37 N         -73.5913   25.0634  -77.4561 N.am      7 UNK        -0.4454 
     38 C         -73.0204   26.1136  -78.0640 C.2       7 UNK         0.5089 
     39 O         -71.8039   26.2624  -78.1738 O.2       7 UNK        -0.5125 
     40 CA        -73.9613   27.1965  -78.6225 C.3       6 UNK         0.0408 
     41 CB        -74.3809   26.8550  -80.0607 C.3       6 UNK        -0.1791 
     42 N         -75.1571   27.4037  -77.8013 N.am      6 UNK        -0.4762 
     43 C         -75.1502   27.9244  -76.5647 C.2       6 UNK         0.5007 
     44 O         -74.1315   28.3108  -75.9955 O.2       6 UNK        -0.5032 
     45 CA        -76.5010   27.9782  -75.8223 C.3       5 UNK         0.0783 
     46 C46       -77.2256   29.3050  -76.1563 C.3       11 UNK        -0.0857 
     47 S47       -78.8428   29.4736  -75.3322 S.3       11 UNK        -0.2512 
     48 C48       -78.4473   30.5989  -73.9508 C.3       11 UNK         0.0225 
     49 N         -77.3311   26.7930  -76.0832 N.am      5 UNK        -0.4615 
     50 C         -76.9631   25.5254  -75.8503 C.2       4 UNK         0.5053 
     51 O         -75.8591   25.2220  -75.3968 O.2       4 UNK        -0.5105 
     52 CA        -77.9592   24.4028  -76.1991 C.3       4 UNK         0.0263 
     53 CB        -77.8851   23.2488  -75.1818 C.3       4 UNK        -0.1981 
     54 N         -79.3514   24.8501  -76.3134 N.am      4 UNK        -0.4224 
     55 C         -79.9181   25.3726  -77.4112 C.2       3 UNK         0.4895 
     56 O         -79.2842   25.6504  -78.4294 O.2       3 UNK        -0.5091 
     57 CA        -81.4404   25.6070  -77.3645 C.3       3 UNK         0.0250 
     58 CB        -82.1096   25.4136  -78.7403 C.3       3 UNK        -0.1996 
     59 N         -82.0693   24.7317  -76.3712 N.am      3 UNK        -0.4254 
     60 C         -83.1930   24.9938  -75.6920 C.2       2 UNK         0.5004 
     61 O         -83.8941   25.9903  -75.8680 O.2       2 UNK        -0.5226 
     62 CA        -83.5563   23.9829  -74.5917 C.3       2 UNK         0.0269 
     63 CB        -84.0064   22.6379  -75.1878 C.3       2 UNK        -0.1926 
     64 N         -82.4205   23.7742  -73.6872 N.am      2 UNK        -0.4687 
     65 C         -82.0405   24.6545  -72.7476 C.2       1 UNK         0.5165 
     66 O         -82.6934   25.6599  -72.4645 O.2       1 UNK        -0.5079 
     67 H67       -79.5744   20.1968  -71.0164 H         1 UNK         0.0900 
     68 H68       -79.0833   20.7790  -72.6081 H         1 UNK         0.0900 
     69 H69       -80.6206   19.9340  -72.4142 H         1 UNK         0.0900 
     70 H70       -79.3107   22.9966  -72.7657 H         1 UNK         0.2959 
     71 H71       -80.8896   24.5412  -70.9599 H         1 UNK         0.1079 
     72 H72       -79.5011   25.4754  -73.5314 H         1 UNK         0.0837 
     73 H73       -80.1192   26.4877  -72.2634 H         1 UNK         0.0837 
     74 H74       -79.1266   27.0635  -70.2032 H         1 UNK         0.0685 
     75 H75       -77.5452   26.6251  -69.6281 H         1 UNK         0.0685 
     76 H76       -79.1227   28.3433  -72.6195 H         1 UNK         0.1434 
     77 H77       -76.1240   31.3900  -72.7314 H         1 UNK         0.1329 
     78 H78       -75.8186   28.1969  -69.8893 H         1 UNK         0.1335 
     79 H79       -74.7512   31.5824  -70.5487 H         1 UNK         0.0680 
     80 H80       -74.4689   30.1449  -69.6176 H         1 UNK         0.0680 
     81 H81       -71.9025   31.9702  -72.5575 H         1 UNK         0.1032 
     82 H82       -73.5668   32.3824  -72.3020 H         1 UNK         0.1032 
     83 H83       -74.2569   30.9632  -74.2332 H         1 UNK         0.0461 
     84 H84       -73.6452   34.4669  -75.2766 H         1 UNK         0.3453 
     85 H85       -74.1770   33.7180  -73.7977 H         1 UNK         0.3453 
     86 H86       -73.0395   29.3865  -75.0793 H         1 UNK         0.2984 
     87 H87       -70.8064   28.7240  -76.4218 H         1 UNK         0.0554 
     88 H88       -68.8366   27.4281  -75.5606 H         1 UNK         0.0847 
     89 H89       -68.8801   28.3645  -74.0664 H         1 UNK         0.0847 
     90 H90       -68.5369   29.1583  -75.5935 H         1 UNK         0.0847 
     91 H91       -72.1177   27.1632  -75.5967 H         1 UNK         0.3141 
     92 H92       -72.2392   25.1553  -72.7994 H         1 UNK         0.0743 
     93 H93       -74.3461   27.3118  -73.3795 H         1 UNK         0.0784 
     94 H94       -74.6765   25.7572  -72.6171 H         1 UNK         0.0784 
     95 H95       -73.6544   26.9382  -71.8123 H         1 UNK         0.0784 
     96 H96       -74.0207   25.4178  -75.0230 H         1 UNK         0.3213 
     97 H97       -72.0010   23.7135  -77.4262 H         1 UNK         0.0855 
     98 H98       -74.6021   22.9419  -75.9962 H         1 UNK         0.0814 
     99 H99       -73.1890   21.9205  -76.1983 H         1 UNK         0.0814 
    100 H100      -74.1198   22.4067  -77.6057 H         1 UNK         0.0814 
    101 H101      -74.5963   25.0522  -77.3546 H         1 UNK         0.3105 
    102 H102      -73.4048   28.1361  -78.6462 H         1 UNK         0.0547 
    103 H103      -73.5068   26.7175  -80.6990 H         1 UNK         0.0837 
    104 H104      -74.9648   25.9349  -80.1061 H         1 UNK         0.0837 
    105 H105      -74.9774   27.6542  -80.5009 H         1 UNK         0.0837 
    106 H106      -76.0407   27.1078  -78.1922 H         1 UNK         0.3020 
    107 H107      -76.2764   27.9764  -74.7530 H         1 UNK         0.1245 
    108 H108      -76.5987   30.1588  -75.8906 H         1 UNK         0.0781 
    109 H109      -77.3995   29.3842  -77.2313 H         1 UNK         0.0781 
    110 H110      -79.3813   30.9888  -73.5441 H         1 UNK         0.0836 
    111 H111      -77.8985   31.4621  -74.3307 H         1 UNK         0.0836 
    112 H112      -78.2478   26.9673  -76.4678 H         1 UNK         0.3022 
    113 H113      -77.6475   24.0043  -77.1669 H         1 UNK         0.0747 
    114 H114      -78.6195   22.4728  -75.3983 H         1 UNK         0.0793 
    115 H115      -76.9046   22.7722  -75.2032 H         1 UNK         0.0793 
    116 H116      -78.0443   23.5988  -74.1631 H         1 UNK         0.0793 
    117 H117      -79.9281   24.7292  -75.4964 H         1 UNK         0.3047 
    118 H118      -81.5789   26.6454  -77.0553 H         1 UNK         0.0822 
    119 H119      -83.1788   25.6210  -78.6959 H         1 UNK         0.0807 
    120 H120      -81.9808   24.3953  -79.1085 H         1 UNK         0.0807 
    121 H121      -81.6844   26.0882  -79.4846 H         1 UNK         0.0807 
    122 H122      -81.5966   23.8567  -76.1943 H         1 UNK         0.2946 
    123 H123      -84.3923   24.3966  -74.0221 H         1 UNK         0.1144 
    124 H124      -84.8462   22.7770  -75.8702 H         1 UNK         0.0793 
    125 H125      -84.3367   21.9529  -74.4067 H         1 UNK         0.0793 
    126 H126      -83.2099   22.1460  -75.7471 H         1 UNK         0.0793 
    127 H127      -81.8543   22.9505  -73.8279 H         1 UNK         0.2896 
@<TRIPOS>BOND
     1    1    2 1    
     2    1   67 1    
     3    1   68 1    
     4    1   69 1    
     5    2    3 2    
     6    2    4 am   BACKBONE|DICT|INTERRES
     7    4    5 1    
     8    4   70 1    
     9    5    6 1    
    10    5   65 1    
    11    5   71 1    
    12    6    7 1    
    13    6   72 1    
    14    6   73 1    
    15    7    8 1    
    16    8    9 1    
    17    8   74 1    
    18    8   75 1    
    19    9   10 ar   
    20    9   14 ar   
    21   10   11 ar   
    22   10   76 1    
    23   11   12 ar   
    24   11   48 1    
    25   12   13 ar   
    26   12   77 1    
    27   13   14 ar   
    28   13   15 1    
    29   14   78 1    
    30   15   16 1    
    31   15   79 1    
    32   15   80 1    
    33   16   17 1    
    34   17   18 1    
    35   17   81 1    
    36   17   82 1    
    37   18   19 1    
    38   18   22 1    
    39   18   83 1    
    40   19   20 am   BACKBONE|DICT|INTERRES
    41   19   21 2    
    42   20   84 1    
    43   20   85 1    
    44   22   23 am   BACKBONE|DICT|INTERRES
    45   22   86 1    
    46   23   24 2    
    47   23   25 1    
    48   25   26 1    
    49   25   27 1    
    50   25   87 1    
    51   26   88 1    
    52   26   89 1    
    53   26   90 1    
    54   27   28 am   BACKBONE|DICT|INTERRES
    55   27   91 1    
    56   28   29 2    
    57   28   30 1    
    58   30   31 1    
    59   30   32 1    
    60   30   92 1    
    61   31   93 1    
    62   31   94 1    
    63   31   95 1    
    64   32   33 am   BACKBONE|DICT|INTERRES
    65   32   96 1    
    66   33   34 2    
    67   33   35 1    
    68   35   36 1    
    69   35   37 1    
    70   35   97 1    
    71   36   98 1    
    72   36   99 1    
    73   36  100 1    
    74   37   38 am   BACKBONE|DICT|INTERRES
    75   37  101 1    
    76   38   39 2    
    77   38   40 1    
    78   40   41 1    
    79   40   42 1    
    80   40  102 1    
    81   41  103 1    
    82   41  104 1    
    83   41  105 1    
    84   42   43 am   BACKBONE|DICT|INTERRES
    85   42  106 1    
    86   43   44 2    
    87   43   45 1    
    88   45   46 1    
    89   45   49 1    
    90   45  107 1    
    91   46   47 1    
    92   46  108 1    
    93   46  109 1    
    94   47   48 1    
    95   48  110 1    
    96   48  111 1    
    97   49   50 am   BACKBONE|DICT|INTERRES
    98   49  112 1    
    99   50   51 2    
   100   50   52 1    
   101   52   53 1    
   102   52   54 1    
   103   52  113 1    
   104   53  114 1    
   105   53  115 1    
   106   53  116 1    
   107   54   55 am   BACKBONE|DICT|INTERRES
   108   54  117 1    
   109   55   56 2    
   110   55   57 1    
   111   57   58 1    
   112   57   59 1    
   113   57  118 1    
   114   58  119 1    
   115   58  120 1    
   116   58  121 1    
   117   59   60 am   BACKBONE|DICT|INTERRES
   118   59  122 1    
   119   60   61 2    
   120   60   62 1    
   121   62   63 1    
   122   62   64 1    
   123   62  123 1    
   124   63  124 1    
   125   63  125 1    
   126   63  126 1    
   127   64   65 am   BACKBONE|DICT|INTERRES
   128   64  127 1    
   129   65   66 2    
@<TRIPOS>SUBSTRUCTURE
     1 UNK         1 GROUP             0       ****    0 ROOT    
