@<TRIPOS>MOLECULE
3R135
127   129    1
SMALL
USER_CHARGES


@<TRIPOS>ATOM
      1 CA        -78.6331   29.0258  -75.0102 C.3       0 UNK        -0.1998 
      2 C         -79.9444   29.8037  -75.0486 C.2       0 UNK         0.4909 
      3 O         -80.0516   30.7680  -75.8041 O.2       0 UNK        -0.5240 
      4 N         -80.9624   29.4426  -74.2563 N.am      1 UNK        -0.4739 
      5 CA        -81.0217   28.2829  -73.3567 C.3       1 UNK         0.0864 
      6 C6        -82.1060   28.4597  -72.2615 C.3       11 UNK        -0.0881 
      7 S7        -81.9662   30.0294  -71.3386 S.3       11 UNK        -0.2682 
      8 C8        -81.0640   29.5219  -69.8417 C.3       11 UNK         0.0289 
      9 C9        -79.5996   29.2220  -70.1283 C.ar      11 UNK        -0.0687 
     10 C10       -79.1113   27.9142  -70.0251 C.ar      11 UNK        -0.0823 
     11 C11       -77.7602   27.6459  -70.2638 C.ar      11 UNK        -0.0830 
     12 C12       -76.8980   28.6951  -70.5827 C.ar      11 UNK        -0.1021 
     13 C13       -77.3763   29.9973  -70.7216 C.ar      11 UNK        -0.0753 
     14 C14       -78.7287   30.2591  -70.4848 C.ar      11 UNK        -0.0933 
     15 C15       -76.4144   31.1029  -71.1240 C.3       11 UNK         0.0166 
     16 S16       -75.8574   30.8978  -72.8506 S.3       11 UNK        -0.2615 
     17 C17       -74.0823   31.3258  -72.7186 C.3       11 UNK        -0.0865 
     18 CA        -73.1052   30.1294  -72.9150 C.3       10 UNK         0.0862 
     19 C         -73.2732   28.9893  -71.8758 C.2       10 UNK         0.5551 
     20 N         -73.0413   29.2769  -70.6019 N.am      10 UNK        -0.7319 
     21 O         -73.6109   27.8529  -72.2020 O.2       10 UNK        -0.5018 
     22 N         -73.1078   29.6177  -74.2898 N.am      10 UNK        -0.4509 
     23 C         -72.4387   30.1672  -75.3095 C.2       10 UNK         0.4899 
     24 O         -71.7966   31.2156  -75.2191 O.2       10 UNK        -0.4839 
     25 CA        -72.4906   29.4106  -76.6494 C.3       9 UNK         0.0222 
     26 CB        -71.5117   29.9641  -77.7064 C.3       9 UNK        -0.1966 
     27 N         -72.3195   27.9657  -76.4779 N.am      9 UNK        -0.4218 
     28 C         -71.2604   27.3002  -75.9938 C.2       9 UNK         0.5020 
     29 O         -70.2008   27.8319  -75.6590 O.2       9 UNK        -0.5274 
     30 CA        -71.4091   25.7725  -75.8444 C.3       8 UNK         0.0270 
     31 CB        -71.6948   25.4072  -74.3785 C.3       8 UNK        -0.1976 
     32 N         -72.4587   25.2011  -76.6957 N.am      8 UNK        -0.4313 
     33 C         -72.3849   25.0993  -78.0309 C.2       8 UNK         0.5041 
     34 O         -71.3794   25.3804  -78.6845 O.2       8 UNK        -0.5577 
     35 CA        -73.6577   24.6442  -78.7661 C.3       7 UNK         0.0284 
     36 CB        -73.7813   23.1124  -78.7498 C.3       7 UNK        -0.1958 
     37 N         -74.8755   25.2515  -78.2189 N.am      7 UNK        -0.4454 
     38 C         -75.1601   26.5620  -78.2661 C.2       7 UNK         0.5089 
     39 O         -74.4570   27.3953  -78.8360 O.2       7 UNK        -0.5125 
     40 CA        -76.4130   27.0364  -77.5115 C.3       6 UNK         0.0408 
     41 CB        -77.6771   26.8395  -78.3617 C.3       6 UNK        -0.1791 
     42 N         -76.5778   26.3663  -76.2219 N.am      6 UNK        -0.4762 
     43 C         -75.7525   26.4971  -75.1729 C.2       6 UNK         0.5007 
     44 O         -74.7810   27.2507  -75.1592 O.2       6 UNK        -0.5032 
     45 CA        -76.0534   25.6090  -73.9501 C.3       5 UNK         0.0783 
     46 C46       -77.1437   26.2705  -73.0767 C.3       11 UNK        -0.0857 
     47 S47       -77.7108   25.2507  -71.6688 S.3       11 UNK        -0.2512 
     48 C48       -77.2184   26.2253  -70.2104 C.3       11 UNK         0.0225 
     49 N         -76.4147   24.2515  -74.3652 N.am      5 UNK        -0.4615 
     50 C         -75.5872   23.3835  -74.9596 C.2       4 UNK         0.5053 
     51 O         -74.4052   23.6221  -75.2045 O.2       4 UNK        -0.5105 
     52 CA        -76.1972   22.0382  -75.3882 C.3       4 UNK         0.0263 
     53 CB        -76.2182   21.0548  -74.2075 C.3       4 UNK        -0.1981 
     54 N         -77.5508   22.1833  -75.9324 N.am      4 UNK        -0.4224 
     55 C         -77.8383   22.8172  -77.0788 C.2       3 UNK         0.4895 
     56 O         -76.9870   23.2952  -77.8275 O.2       3 UNK        -0.5091 
     57 CA        -79.3286   22.9957  -77.4217 C.3       3 UNK         0.0250 
     58 CB        -79.8749   21.7444  -78.1272 C.3       3 UNK        -0.1996 
     59 N         -80.1704   23.3182  -76.2617 N.am      3 UNK        -0.4254 
     60 C         -79.9980   24.3878  -75.4721 C.2       2 UNK         0.5004 
     61 O         -79.0886   25.2043  -75.6293 O.2       2 UNK        -0.5226 
     62 CA        -80.9694   24.5373  -74.2871 C.3       2 UNK         0.0269 
     63 CB        -80.7233   23.4368  -73.2400 C.3       2 UNK        -0.1926 
     64 N         -80.8435   25.8464  -73.6351 N.am      2 UNK        -0.4687 
     65 C         -81.2973   26.9930  -74.1591 C.2       1 UNK         0.5165 
     66 O         -81.9449   27.0505  -75.2083 O.2       1 UNK        -0.5079 
     67 H67       -78.2125   29.0171  -74.0050 H         1 UNK         0.0900 
     68 H68       -78.7842   28.0023  -75.3496 H         1 UNK         0.0900 
     69 H69       -77.8951   29.4853  -75.6674 H         1 UNK         0.0900 
     70 H70       -81.8180   29.9757  -74.3071 H         1 UNK         0.2959 
     71 H71       -80.0566   28.1786  -72.8579 H         1 UNK         0.1079 
     72 H72       -82.0780   27.6273  -71.5555 H         1 UNK         0.0837 
     73 H73       -83.1029   28.4380  -72.7071 H         1 UNK         0.0837 
     74 H74       -81.5621   28.6643  -69.3867 H         1 UNK         0.0685 
     75 H75       -81.1212   30.3290  -69.1100 H         1 UNK         0.0685 
     76 H76       -79.7795   27.1038  -69.7672 H         1 UNK         0.1434 
     77 H77       -75.8535   28.4910  -70.7671 H         1 UNK         0.1329 
     78 H78       -79.1080   31.2675  -70.5793 H         1 UNK         0.1335 
     79 H79       -75.5658   31.0798  -70.4394 H         1 UNK         0.0680 
     80 H80       -76.8758   32.0851  -71.0122 H         1 UNK         0.0680 
     81 H81       -73.8854   31.8161  -71.7646 H         1 UNK         0.1032 
     82 H82       -73.8723   32.0910  -73.4672 H         1 UNK         0.1032 
     83 H83       -72.0970   30.5078  -72.7332 H         1 UNK         0.0461 
     84 H84       -73.1367   28.5475  -69.9136 H         1 UNK         0.3453 
     85 H85       -72.7458   30.1968  -70.3163 H         1 UNK         0.3453 
     86 H86       -73.6094   28.7429  -74.4256 H         1 UNK         0.2984 
     87 H87       -73.5019   29.5477  -77.0351 H         1 UNK         0.0554 
     88 H88       -71.7242   31.0113  -77.9246 H         1 UNK         0.0847 
     89 H89       -71.5927   29.4152  -78.6446 H         1 UNK         0.0847 
     90 H90       -70.4757   29.9063  -77.3711 H         1 UNK         0.0847 
     91 H91       -73.1572   27.4216  -76.6428 H         1 UNK         0.3141 
     92 H92       -70.4570   25.3206  -76.1304 H         1 UNK         0.0743 
     93 H93       -70.9110   25.7852  -73.7207 H         1 UNK         0.0784 
     94 H94       -72.6390   25.8313  -74.0347 H         1 UNK         0.0784 
     95 H95       -71.7429   24.3270  -74.2397 H         1 UNK         0.0784 
     96 H96       -73.2924   24.8571  -76.2250 H         1 UNK         0.3213 
     97 H97       -73.5688   24.9645  -79.8065 H         1 UNK         0.0855 
     98 H98       -73.8924   22.7250  -77.7371 H         1 UNK         0.0814 
     99 H99       -72.8955   22.6453  -79.1823 H         1 UNK         0.0814 
    100 H100      -74.6406   22.7780  -79.3314 H         1 UNK         0.0814 
    101 H101      -75.5547   24.6214  -77.8001 H         1 UNK         0.3105 
    102 H102      -76.2997   28.1048  -77.3164 H         1 UNK         0.0547 
    103 H103      -78.5628   27.2174  -77.8507 H         1 UNK         0.0837 
    104 H104      -77.8493   25.7884  -78.5931 H         1 UNK         0.0837 
    105 H105      -77.5958   27.3731  -79.3095 H         1 UNK         0.0837 
    106 H106      -77.3968   25.7695  -76.1154 H         1 UNK         0.3020 
    107 H107      -75.1359   25.5454  -73.3600 H         1 UNK         0.1245 
    108 H108      -78.0283   26.4955  -73.6697 H         1 UNK         0.0781 
    109 H109      -76.7731   27.2325  -72.7290 H         1 UNK         0.0781 
    110 H110      -76.1294   26.2275  -70.1383 H         1 UNK         0.0836 
    111 H111      -77.5831   25.7288  -69.3101 H         1 UNK         0.0836 
    112 H112      -77.3811   23.9952  -74.2332 H         1 UNK         0.3022 
    113 H113      -75.5613   21.6192  -76.1710 H         1 UNK         0.0747 
    114 H114      -76.5777   20.0727  -74.5155 H         1 UNK         0.0793 
    115 H115      -75.2162   20.9174  -73.7984 H         1 UNK         0.0793 
    116 H116      -76.8558   21.4075  -73.3957 H         1 UNK         0.0793 
    117 H117      -78.3122   21.8155  -75.3812 H         1 UNK         0.3047 
    118 H118      -79.4008   23.8347  -78.1168 H         1 UNK         0.0822 
    119 H119      -80.8971   21.8982  -78.4735 H         1 UNK         0.0807 
    120 H120      -79.8692   20.8729  -77.4714 H         1 UNK         0.0807 
    121 H121      -79.2730   21.4970  -79.0031 H         1 UNK         0.0807 
    122 H122      -80.9350   22.6868  -76.0691 H         1 UNK         0.2946 
    123 H123      -81.9876   24.4381  -74.6708 H         1 UNK         0.1144 
    124 H124      -79.6943   23.4387  -72.8810 H         1 UNK         0.0793 
    125 H125      -80.9199   22.4464  -73.6519 H         1 UNK         0.0793 
    126 H126      -81.3783   23.5568  -72.3768 H         1 UNK         0.0793 
    127 H127      -80.3040   25.8683  -72.7816 H         1 UNK         0.2896 
@<TRIPOS>BOND
     1    1    2 1    
     2    1   67 1    
     3    1   68 1    
     4    1   69 1    
     5    2    3 2    
     6    2    4 am   BACKBONE|DICT|INTERRES
     7    4    5 1    
     8    4   70 1    
     9    5    6 1    
    10    5   65 1    
    11    5   71 1    
    12    6    7 1    
    13    6   72 1    
    14    6   73 1    
    15    7    8 1    
    16    8    9 1    
    17    8   74 1    
    18    8   75 1    
    19    9   10 ar   
    20    9   14 ar   
    21   10   11 ar   
    22   10   76 1    
    23   11   12 ar   
    24   11   48 1    
    25   12   13 ar   
    26   12   77 1    
    27   13   14 ar   
    28   13   15 1    
    29   14   78 1    
    30   15   16 1    
    31   15   79 1    
    32   15   80 1    
    33   16   17 1    
    34   17   18 1    
    35   17   81 1    
    36   17   82 1    
    37   18   19 1    
    38   18   22 1    
    39   18   83 1    
    40   19   20 am   BACKBONE|DICT|INTERRES
    41   19   21 2    
    42   20   84 1    
    43   20   85 1    
    44   22   23 am   BACKBONE|DICT|INTERRES
    45   22   86 1    
    46   23   24 2    
    47   23   25 1    
    48   25   26 1    
    49   25   27 1    
    50   25   87 1    
    51   26   88 1    
    52   26   89 1    
    53   26   90 1    
    54   27   28 am   BACKBONE|DICT|INTERRES
    55   27   91 1    
    56   28   29 2    
    57   28   30 1    
    58   30   31 1    
    59   30   32 1    
    60   30   92 1    
    61   31   93 1    
    62   31   94 1    
    63   31   95 1    
    64   32   33 am   BACKBONE|DICT|INTERRES
    65   32   96 1    
    66   33   34 2    
    67   33   35 1    
    68   35   36 1    
    69   35   37 1    
    70   35   97 1    
    71   36   98 1    
    72   36   99 1    
    73   36  100 1    
    74   37   38 am   BACKBONE|DICT|INTERRES
    75   37  101 1    
    76   38   39 2    
    77   38   40 1    
    78   40   41 1    
    79   40   42 1    
    80   40  102 1    
    81   41  103 1    
    82   41  104 1    
    83   41  105 1    
    84   42   43 am   BACKBONE|DICT|INTERRES
    85   42  106 1    
    86   43   44 2    
    87   43   45 1    
    88   45   46 1    
    89   45   49 1    
    90   45  107 1    
    91   46   47 1    
    92   46  108 1    
    93   46  109 1    
    94   47   48 1    
    95   48  110 1    
    96   48  111 1    
    97   49   50 am   BACKBONE|DICT|INTERRES
    98   49  112 1    
    99   50   51 2    
   100   50   52 1    
   101   52   53 1    
   102   52   54 1    
   103   52  113 1    
   104   53  114 1    
   105   53  115 1    
   106   53  116 1    
   107   54   55 am   BACKBONE|DICT|INTERRES
   108   54  117 1    
   109   55   56 2    
   110   55   57 1    
   111   57   58 1    
   112   57   59 1    
   113   57  118 1    
   114   58  119 1    
   115   58  120 1    
   116   58  121 1    
   117   59   60 am   BACKBONE|DICT|INTERRES
   118   59  122 1    
   119   60   61 2    
   120   60   62 1    
   121   62   63 1    
   122   62   64 1    
   123   62  123 1    
   124   63  124 1    
   125   63  125 1    
   126   63  126 1    
   127   64   65 am   BACKBONE|DICT|INTERRES
   128   64  127 1    
   129   65   66 2    
@<TRIPOS>SUBSTRUCTURE
     1 UNK         1 GROUP             0       ****    0 ROOT    
