@<TRIPOS>MOLECULE
3R135
127   129    1
SMALL
USER_CHARGES


@<TRIPOS>ATOM
      1 CA        -80.5931   24.1616  -70.8096 C.3       0 UNK        -0.1998 
      2 C         -81.2200   24.7710  -72.0546 C.2       0 UNK         0.4909 
      3 O         -82.0802   24.1474  -72.6765 O.2       0 UNK        -0.5240 
      4 N         -80.8020   25.9897  -72.4154 N.am      1 UNK        -0.4739 
      5 CA        -81.2520   26.7142  -73.6079 C.3       1 UNK         0.0864 
      6 C6        -80.7894   28.1927  -73.5823 C.3       11 UNK        -0.0881 
      7 S7        -81.3968   29.1093  -72.1293 S.3       11 UNK        -0.2682 
      8 C8        -80.2011   30.4916  -72.0562 C.3       11 UNK         0.0289 
      9 C9        -78.7596   30.0811  -71.7500 C.ar      11 UNK        -0.0687 
     10 C10       -78.4689   29.0185  -70.8852 C.ar      11 UNK        -0.0823 
     11 C11       -77.1454   28.6673  -70.6057 C.ar      11 UNK        -0.0830 
     12 C12       -76.1050   29.4050  -71.1741 C.ar      11 UNK        -0.1021 
     13 C13       -76.3735   30.4722  -72.0339 C.ar      11 UNK        -0.0753 
     14 C14       -77.7031   30.8048  -72.3168 C.ar      11 UNK        -0.0933 
     15 C15       -75.2221   31.2761  -72.6243 C.3       11 UNK         0.0166 
     16 S16       -75.1525   31.1446  -74.4372 S.3       11 UNK        -0.2615 
     17 C17       -73.4662   31.7597  -74.7770 C.3       11 UNK        -0.0865 
     18 CA        -72.6055   30.6981  -75.5172 C.3       10 UNK         0.0862 
     19 C         -71.2438   31.2382  -76.0413 C.2       10 UNK         0.5551 
     20 N         -70.4424   30.3953  -76.6811 N.am      10 UNK        -0.7319 
     21 O         -70.9121   32.4107  -75.8819 O.2       10 UNK        -0.5018 
     22 N         -72.4717   29.4342  -74.7742 N.am      10 UNK        -0.4509 
     23 C         -71.7804   29.2330  -73.6431 C.2       10 UNK         0.4899 
     24 O         -71.2031   30.1241  -73.0200 O.2       10 UNK        -0.4839 
     25 CA        -71.7160   27.7885  -73.1115 C.3       9 UNK         0.0222 
     26 CB        -72.5615   27.6422  -71.8368 C.3       9 UNK        -0.1966 
     27 N         -72.1830   26.8221  -74.1100 N.am      9 UNK        -0.4218 
     28 C         -71.3899   26.1800  -74.9781 C.2       9 UNK         0.5020 
     29 O         -70.1590   26.2106  -74.9408 O.2       9 UNK        -0.5274 
     30 CA        -72.0915   25.4090  -76.1102 C.3       8 UNK         0.0270 
     31 CB        -72.8355   24.1751  -75.5701 C.3       8 UNK        -0.1976 
     32 N         -73.0191   26.2439  -76.8799 N.am      8 UNK        -0.4313 
     33 C         -72.7094   27.3577  -77.5588 C.2       8 UNK         0.5041 
     34 O         -71.5742   27.8297  -77.6234 O.2       8 UNK        -0.5577 
     35 CA        -73.8654   28.1188  -78.2357 C.3       7 UNK         0.0284 
     36 CB        -74.2552   27.4764  -79.5819 C.3       7 UNK        -0.1958 
     37 N         -75.0249   28.3198  -77.3521 N.am      7 UNK        -0.4454 
     38 C         -75.8727   27.3970  -76.8813 C.2       7 UNK         0.5089 
     39 O         -75.8713   26.2129  -77.2269 O.2       7 UNK        -0.5125 
     40 CA        -76.8601   27.8750  -75.8067 C.3       6 UNK         0.0408 
     41 CB        -78.1892   28.2914  -76.4506 C.3       6 UNK        -0.1791 
     42 N         -77.0881   26.8446  -74.7899 N.am      6 UNK        -0.4762 
     43 C         -76.1307   26.3502  -73.9886 C.2       6 UNK         0.5007 
     44 O         -74.9689   26.7598  -73.9959 O.2       6 UNK        -0.5032 
     45 CA        -76.4982   25.1638  -73.0807 C.3       5 UNK         0.0783 
     46 C46       -77.1589   25.5943  -71.7485 C.3       11 UNK        -0.0857 
     47 S47       -75.9360   26.1610  -70.5209 S.3       11 UNK        -0.2512 
     48 C48       -76.8366   27.5015  -69.6766 C.3       11 UNK         0.0225 
     49 N         -77.3172   24.1947  -73.8083 N.am      5 UNK        -0.4615 
     50 C         -77.2056   22.8677  -73.6848 C.2       4 UNK         0.5053 
     51 O         -76.4224   22.3147  -72.9121 O.2       4 UNK        -0.5105 
     52 CA        -78.1160   21.9995  -74.5687 C.3       4 UNK         0.0263 
     53 CB        -79.4232   21.6645  -73.8350 C.3       4 UNK        -0.1981 
     54 N         -78.4358   22.6141  -75.8572 N.am      4 UNK        -0.4224 
     55 C         -77.5739   22.8143  -76.8610 C.2       3 UNK         0.4895 
     56 O         -76.3901   22.4786  -76.8149 O.2       3 UNK        -0.5091 
     57 CA        -78.1078   23.4892  -78.1408 C.3       3 UNK         0.0250 
     58 CB        -78.5574   22.4334  -79.1695 C.3       3 UNK        -0.1996 
     59 N         -79.1487   24.5111  -77.9381 N.am      3 UNK        -0.4254 
     60 C         -80.3960   24.3730  -77.4620 C.2       2 UNK         0.5004 
     61 O         -80.8870   23.3042  -77.0936 O.2       2 UNK        -0.5226 
     62 CA        -81.2231   25.6657  -77.3372 C.3       2 UNK         0.0269 
     63 CB        -82.5305   25.5471  -78.1390 C.3       2 UNK        -0.1926 
     64 N         -81.5450   26.0525  -75.9549 N.am      2 UNK        -0.4687 
     65 C         -80.7251   26.0432  -74.8921 C.2       1 UNK         0.5165 
     66 O         -79.5681   25.6142  -74.9065 O.2       1 UNK        -0.5079 
     67 H67       -79.9484   23.3272  -71.0843 H         1 UNK         0.0900 
     68 H68       -81.3694   23.7874  -70.1428 H         1 UNK         0.0900 
     69 H69       -79.9972   24.8875  -70.2565 H         1 UNK         0.0900 
     70 H70       -80.1107   26.4666  -71.8583 H         1 UNK         0.2959 
     71 H71       -82.3439   26.6871  -73.6232 H         1 UNK         0.1079 
     72 H72       -79.6989   28.2422  -73.5932 H         1 UNK         0.0837 
     73 H73       -81.1320   28.7217  -74.4740 H         1 UNK         0.0837 
     74 H74       -80.2465   31.0322  -73.0031 H         1 UNK         0.0685 
     75 H75       -80.5287   31.1907  -71.2860 H         1 UNK         0.0685 
     76 H76       -79.2743   28.4646  -70.4241 H         1 UNK         0.1434 
     77 H77       -75.0831   29.1460  -70.9384 H         1 UNK         0.1329 
     78 H78       -77.9114   31.6359  -72.9769 H         1 UNK         0.1335 
     79 H79       -75.3277   32.3246  -72.3427 H         1 UNK         0.0680 
     80 H80       -74.2727   30.9353  -72.2074 H         1 UNK         0.0680 
     81 H81       -72.9762   32.0743  -73.8542 H         1 UNK         0.1032 
     82 H82       -73.5629   32.6606  -75.3855 H         1 UNK         0.1032 
     83 H83       -73.1545   30.4455  -76.4237 H         1 UNK         0.0461 
     84 H84       -69.5556   30.7241  -77.0280 H         1 UNK         0.3453 
     85 H85       -70.7364   29.4410  -76.8697 H         1 UNK         0.3453 
     86 H86       -72.8982   28.6274  -75.2006 H         1 UNK         0.2984 
     87 H87       -70.6763   27.5812  -72.8506 H         1 UNK         0.0554 
     88 H88       -72.4820   26.6382  -71.4199 H         1 UNK         0.0847 
     89 H89       -73.6145   27.8368  -72.0336 H         1 UNK         0.0847 
     90 H90       -72.2371   28.3419  -71.0655 H         1 UNK         0.0847 
     91 H91       -73.1960   26.7175  -74.1838 H         1 UNK         0.3141 
     92 H92       -71.3189   25.0630  -76.7999 H         1 UNK         0.0743 
     93 H93       -73.6643   24.4496  -74.9169 H         1 UNK         0.0784 
     94 H94       -73.2421   23.5712  -76.3819 H         1 UNK         0.0784 
     95 H95       -72.1648   23.5348  -74.9956 H         1 UNK         0.0784 
     96 H96       -73.9961   25.9598  -76.8924 H         1 UNK         0.3213 
     97 H97       -73.4910   29.1190  -78.4603 H         1 UNK         0.0855 
     98 H98       -73.4039   27.4659  -80.2638 H         1 UNK         0.0814 
     99 H99       -75.0543   28.0337  -80.0705 H         1 UNK         0.0814 
    100 H100      -74.5864   26.4439  -79.4696 H         1 UNK         0.0814 
    101 H101      -75.1305   29.2603  -76.9961 H         1 UNK         0.3105 
    102 H102      -76.4368   28.7416  -75.2993 H         1 UNK         0.0547 
    103 H103      -78.0306   29.0393  -77.2288 H         1 UNK         0.0837 
    104 H104      -78.6904   27.4431  -76.9125 H         1 UNK         0.0837 
    105 H105      -78.8645   28.7336  -75.7209 H         1 UNK         0.0837 
    106 H106      -78.0146   26.4248  -74.7755 H         1 UNK         0.3020 
    107 H107      -75.5475   24.6787  -72.8445 H         1 UNK         0.1245 
    108 H108      -77.6751   24.7462  -71.2973 H         1 UNK         0.0781 
    109 H109      -77.9218   26.3536  -71.9210 H         1 UNK         0.0781 
    110 H110      -76.2309   27.8625  -68.8443 H         1 UNK         0.0836 
    111 H111      -77.7490   27.0953  -69.2372 H         1 UNK         0.0836 
    112 H112      -78.0138   24.5702  -74.4449 H         1 UNK         0.3022 
    113 H113      -77.5855   21.0654  -74.7651 H         1 UNK         0.0747 
    114 H114      -80.0185   20.9444  -74.3968 H         1 UNK         0.0793 
    115 H115      -79.2255   21.2279  -72.8550 H         1 UNK         0.0793 
    116 H116      -80.0344   22.5540  -73.6831 H         1 UNK         0.0793 
    117 H117      -79.4022   22.8876  -76.0177 H         1 UNK         0.3047 
    118 H118      -77.2598   24.0250  -78.5716 H         1 UNK         0.0822 
    119 H119      -78.8522   22.8969  -80.1109 H         1 UNK         0.0807 
    120 H120      -79.3998   21.8433  -78.8072 H         1 UNK         0.0807 
    121 H121      -77.7473   21.7372  -79.3911 H         1 UNK         0.0807 
    122 H122      -78.8410   25.4469  -78.1615 H         1 UNK         0.2946 
    123 H123      -80.6508   26.4858  -77.7730 H         1 UNK         0.1144 
    124 H124      -82.3312   25.2663  -79.1743 H         1 UNK         0.0793 
    125 H125      -83.0730   26.4924  -78.1612 H         1 UNK         0.0793 
    126 H126      -83.1929   24.7890  -77.7185 H         1 UNK         0.0793 
    127 H127      -82.4769   26.4179  -75.8214 H         1 UNK         0.2896 
@<TRIPOS>BOND
     1    1    2 1    
     2    1   67 1    
     3    1   68 1    
     4    1   69 1    
     5    2    3 2    
     6    2    4 am   BACKBONE|DICT|INTERRES
     7    4    5 1    
     8    4   70 1    
     9    5    6 1    
    10    5   65 1    
    11    5   71 1    
    12    6    7 1    
    13    6   72 1    
    14    6   73 1    
    15    7    8 1    
    16    8    9 1    
    17    8   74 1    
    18    8   75 1    
    19    9   10 ar   
    20    9   14 ar   
    21   10   11 ar   
    22   10   76 1    
    23   11   12 ar   
    24   11   48 1    
    25   12   13 ar   
    26   12   77 1    
    27   13   14 ar   
    28   13   15 1    
    29   14   78 1    
    30   15   16 1    
    31   15   79 1    
    32   15   80 1    
    33   16   17 1    
    34   17   18 1    
    35   17   81 1    
    36   17   82 1    
    37   18   19 1    
    38   18   22 1    
    39   18   83 1    
    40   19   20 am   BACKBONE|DICT|INTERRES
    41   19   21 2    
    42   20   84 1    
    43   20   85 1    
    44   22   23 am   BACKBONE|DICT|INTERRES
    45   22   86 1    
    46   23   24 2    
    47   23   25 1    
    48   25   26 1    
    49   25   27 1    
    50   25   87 1    
    51   26   88 1    
    52   26   89 1    
    53   26   90 1    
    54   27   28 am   BACKBONE|DICT|INTERRES
    55   27   91 1    
    56   28   29 2    
    57   28   30 1    
    58   30   31 1    
    59   30   32 1    
    60   30   92 1    
    61   31   93 1    
    62   31   94 1    
    63   31   95 1    
    64   32   33 am   BACKBONE|DICT|INTERRES
    65   32   96 1    
    66   33   34 2    
    67   33   35 1    
    68   35   36 1    
    69   35   37 1    
    70   35   97 1    
    71   36   98 1    
    72   36   99 1    
    73   36  100 1    
    74   37   38 am   BACKBONE|DICT|INTERRES
    75   37  101 1    
    76   38   39 2    
    77   38   40 1    
    78   40   41 1    
    79   40   42 1    
    80   40  102 1    
    81   41  103 1    
    82   41  104 1    
    83   41  105 1    
    84   42   43 am   BACKBONE|DICT|INTERRES
    85   42  106 1    
    86   43   44 2    
    87   43   45 1    
    88   45   46 1    
    89   45   49 1    
    90   45  107 1    
    91   46   47 1    
    92   46  108 1    
    93   46  109 1    
    94   47   48 1    
    95   48  110 1    
    96   48  111 1    
    97   49   50 am   BACKBONE|DICT|INTERRES
    98   49  112 1    
    99   50   51 2    
   100   50   52 1    
   101   52   53 1    
   102   52   54 1    
   103   52  113 1    
   104   53  114 1    
   105   53  115 1    
   106   53  116 1    
   107   54   55 am   BACKBONE|DICT|INTERRES
   108   54  117 1    
   109   55   56 2    
   110   55   57 1    
   111   57   58 1    
   112   57   59 1    
   113   57  118 1    
   114   58  119 1    
   115   58  120 1    
   116   58  121 1    
   117   59   60 am   BACKBONE|DICT|INTERRES
   118   59  122 1    
   119   60   61 2    
   120   60   62 1    
   121   62   63 1    
   122   62   64 1    
   123   62  123 1    
   124   63  124 1    
   125   63  125 1    
   126   63  126 1    
   127   64   65 am   BACKBONE|DICT|INTERRES
   128   64  127 1    
   129   65   66 2    
@<TRIPOS>SUBSTRUCTURE
     1 UNK         1 GROUP             0       ****    0 ROOT    
