@<TRIPOS>MOLECULE
3R135
127   129    1
SMALL
USER_CHARGES


@<TRIPOS>ATOM
      1 CA        -81.0704   21.7827  -72.3373 C.3       0 UNK        -0.1998 
      2 C         -81.0189   23.2932  -72.4992 C.2       0 UNK         0.4909 
      3 O         -80.1190   23.8023  -73.1692 O.2       0 UNK        -0.5240 
      4 N         -81.9922   24.0118  -71.9191 N.am      1 UNK        -0.4739 
      5 CA        -82.1461   25.4787  -71.8749 C.3       1 UNK         0.0864 
      6 C6        -80.9414   26.1798  -71.1898 C.3       11 UNK        -0.0881 
      7 S7        -81.4242   27.6987  -70.3072 S.3       11 UNK        -0.2682 
      8 C8        -79.8086   28.2702  -69.6756 C.3       11 UNK         0.0289 
      9 C9        -78.8122   28.6712  -70.7626 C.ar      11 UNK        -0.0687 
     10 C10       -79.2252   29.3522  -71.9138 C.ar      11 UNK        -0.0823 
     11 C11       -78.3031   29.7217  -72.8970 C.ar      11 UNK        -0.0830 
     12 C12       -76.9498   29.4275  -72.7142 C.ar      11 UNK        -0.1021 
     13 C13       -76.5186   28.7661  -71.5611 C.ar      11 UNK        -0.0753 
     14 C14       -77.4531   28.3864  -70.5925 C.ar      11 UNK        -0.0933 
     15 C15       -75.0400   28.4748  -71.3647 C.3       11 UNK         0.0166 
     16 S16       -74.1722   29.9575  -70.7657 S.3       11 UNK        -0.2615 
     17 C17       -72.4278   29.4234  -70.8221 C.3       11 UNK        -0.0865 
     18 CA        -71.7030   29.9225  -72.1015 C.3       10 UNK         0.0862 
     19 C         -70.1569   29.7576  -71.9902 C.2       10 UNK         0.5551 
     20 N         -69.4741   29.1064  -72.9256 N.am      10 UNK        -0.7319 
     21 O         -69.5587   30.2431  -71.0332 O.2       10 UNK        -0.5018 
     22 N         -72.2840   29.3120  -73.3051 N.am      10 UNK        -0.4509 
     23 C         -72.2991   29.8516  -74.5286 C.2       10 UNK         0.4899 
     24 O         -71.9029   30.9893  -74.7857 O.2       10 UNK        -0.4839 
     25 CA        -72.8377   28.9394  -75.6492 C.3       9 UNK         0.0222 
     26 CB        -72.4037   29.3960  -77.0584 C.3       9 UNK        -0.1966 
     27 N         -72.5151   27.5190  -75.4318 N.am      9 UNK        -0.4218 
     28 C         -71.2827   26.9879  -75.3606 C.2       9 UNK         0.5020 
     29 O         -70.2532   27.6552  -75.4646 O.2       9 UNK        -0.5274 
     30 CA        -71.1403   25.4753  -75.1001 C.3       8 UNK         0.0270 
     31 CB        -70.3698   25.2381  -73.7887 C.3       8 UNK        -0.1976 
     32 N         -72.3997   24.7280  -75.0317 N.am      8 UNK        -0.4313 
     33 C         -73.1943   24.3275  -76.0334 C.2       8 UNK         0.5041 
     34 O         -74.1696   23.6111  -75.8200 O.2       8 UNK        -0.5577 
     35 CA        -72.9070   24.7354  -77.4855 C.3       7 UNK         0.0284 
     36 CB        -72.3919   23.5399  -78.3072 C.3       7 UNK        -0.1958 
     37 N         -74.1585   25.2371  -78.0439 N.am      7 UNK        -0.4454 
     38 C         -74.2567   26.0897  -79.0699 C.2       7 UNK         0.5089 
     39 O         -73.2932   26.5012  -79.7168 O.2       7 UNK        -0.5125 
     40 CA        -75.6658   26.5899  -79.4170 C.3       6 UNK         0.0408 
     41 CB        -76.4546   25.5235  -80.1941 C.3       6 UNK        -0.1791 
     42 N         -76.4007   26.9756  -78.2115 N.am      6 UNK        -0.4762 
     43 C         -76.2925   28.1712  -77.6109 C.2       6 UNK         0.5007 
     44 O         -75.5997   29.0913  -78.0446 O.2       6 UNK        -0.5032 
     45 CA        -77.1062   28.3964  -76.3204 C.3       5 UNK         0.0783 
     46 C46       -78.4183   29.1538  -76.6540 C.3       11 UNK        -0.0857 
     47 S47       -79.6120   29.2909  -75.2799 S.3       11 UNK        -0.2512 
     48 C48       -78.7823   30.4457  -74.1455 C.3       11 UNK         0.0225 
     49 N         -77.3395   27.1501  -75.5912 N.am      5 UNK        -0.4615 
     50 C         -76.4068   26.4666  -74.9141 C.2       4 UNK         0.5053 
     51 O         -75.2356   26.8290  -74.7998 O.2       4 UNK        -0.5105 
     52 CA        -76.8480   25.1425  -74.2675 C.3       4 UNK         0.0263 
     53 CB        -77.2188   25.3792  -72.7963 C.3       4 UNK        -0.1981 
     54 N         -77.9645   24.4830  -74.9538 N.am      4 UNK        -0.4224 
     55 C         -77.9812   24.1162  -76.2463 C.2       3 UNK         0.4895 
     56 O         -77.0438   24.2871  -77.0267 O.2       3 UNK        -0.5091 
     57 CA        -79.2980   23.5259  -76.7766 C.3       3 UNK         0.0250 
     58 CB        -79.3928   22.0281  -76.4449 C.3       3 UNK        -0.1996 
     59 N         -80.4754   24.2208  -76.2493 N.am      3 UNK        -0.4254 
     60 C         -80.7774   25.5082  -76.4829 C.2       2 UNK         0.5004 
     61 O         -80.1353   26.2349  -77.2393 O.2       2 UNK        -0.5226 
     62 CA        -81.9562   26.0877  -75.6927 C.3       2 UNK         0.0269 
     63 CB        -83.3019   25.6902  -76.3273 C.3       2 UNK        -0.1926 
     64 N         -81.8672   25.6305  -74.3082 N.am      2 UNK        -0.4687 
     65 C         -82.4911   26.1276  -73.2390 C.2       1 UNK         0.5165 
     66 O         -83.3172   27.0395  -73.2948 O.2       1 UNK        -0.5079 
     67 H67       -81.1748   21.3046  -73.3107 H         1 UNK         0.0900 
     68 H68       -80.1482   21.4259  -71.8797 H         1 UNK         0.0900 
     69 H69       -81.9045   21.4669  -71.7111 H         1 UNK         0.0900 
     70 H70       -82.7189   23.5096  -71.4270 H         1 UNK         0.2959 
     71 H71       -83.0246   25.6325  -71.2454 H         1 UNK         0.1079 
     72 H72       -80.1563   26.4072  -71.9116 H         1 UNK         0.0837 
     73 H73       -80.4863   25.5153  -70.4535 H         1 UNK         0.0837 
     74 H74       -79.9749   29.1315  -69.0277 H         1 UNK         0.0685 
     75 H75       -79.3891   27.4852  -69.0444 H         1 UNK         0.0685 
     76 H76       -80.2706   29.5900  -72.0547 H         1 UNK         0.1434 
     77 H77       -76.2239   29.7221  -73.4587 H         1 UNK         0.1329 
     78 H78       -77.1182   27.8773  -69.6990 H         1 UNK         0.1335 
     79 H79       -74.8986   27.6581  -70.6552 H         1 UNK         0.0680 
     80 H80       -74.6098   28.1438  -72.3104 H         1 UNK         0.0680 
     81 H81       -71.9473   29.8263  -69.9283 H         1 UNK         0.1032 
     82 H82       -72.3614   28.3378  -70.7319 H         1 UNK         0.1032 
     83 H83       -71.8671   31.0000  -72.1652 H         1 UNK         0.0461 
     84 H84       -69.9288   28.7243  -73.7463 H         1 UNK         0.3453 
     85 H85       -68.4751   29.0219  -72.8277 H         1 UNK         0.3453 
     86 H86       -72.6159   28.3656  -73.2040 H         1 UNK         0.2984 
     87 H87       -73.9238   29.0180  -75.6026 H         1 UNK         0.0554 
     88 H88       -72.7880   30.3923  -77.2797 H         1 UNK         0.0847 
     89 H89       -72.7884   28.7263  -77.8276 H         1 UNK         0.0847 
     90 H90       -71.3189   29.4360  -77.1592 H         1 UNK         0.0847 
     91 H91       -73.3250   26.9258  -75.2659 H         1 UNK         0.3141 
     92 H92       -70.5399   25.0633  -75.9135 H         1 UNK         0.0743 
     93 H93       -70.9061   25.6359  -72.9261 H         1 UNK         0.0784 
     94 H94       -70.1956   24.1758  -73.6160 H         1 UNK         0.0784 
     95 H95       -69.3912   25.7203  -73.8121 H         1 UNK         0.0784 
     96 H96       -72.6686   24.4384  -74.1028 H         1 UNK         0.3213 
     97 H97       -72.1671   25.5327  -77.5323 H         1 UNK         0.0855 
     98 H98       -73.1148   22.7232  -78.3254 H         1 UNK         0.0814 
     99 H99       -71.4656   23.1485  -77.8851 H         1 UNK         0.0814 
    100 H100      -72.1833   23.8248  -79.3385 H         1 UNK         0.0814 
    101 H101      -74.9982   24.9323  -77.5577 H         1 UNK         0.3105 
    102 H102      -75.5642   27.4627  -80.0659 H         1 UNK         0.0547 
    103 H103      -75.9422   25.2620  -81.1208 H         1 UNK         0.0837 
    104 H104      -76.5764   24.6038  -79.6216 H         1 UNK         0.0837 
    105 H105      -77.4476   25.8833  -80.4634 H         1 UNK         0.0837 
    106 H106      -76.9511   26.2505  -77.7640 H         1 UNK         0.3020 
    107 H107      -76.4997   29.0392  -75.6811 H         1 UNK         0.1245 
    108 H108      -78.9443   28.6558  -77.4711 H         1 UNK         0.0781 
    109 H109      -78.1936   30.1584  -77.0175 H         1 UNK         0.0781 
    110 H110      -79.4880   31.2278  -73.8615 H         1 UNK         0.0836 
    111 H111      -77.9562   30.9518  -74.6469 H         1 UNK         0.0836 
    112 H112      -78.2792   26.7825  -75.6388 H         1 UNK         0.3022 
    113 H113      -76.0012   24.4579  -74.2939 H         1 UNK         0.0747 
    114 H114      -77.5253   24.4561  -72.3044 H         1 UNK         0.0793 
    115 H115      -76.3683   25.7758  -72.2407 H         1 UNK         0.0793 
    116 H116      -78.0307   26.0998  -72.7020 H         1 UNK         0.0793 
    117 H117      -78.7771   24.2697  -74.3789 H         1 UNK         0.3047 
    118 H118      -79.2995   23.6400  -77.8629 H         1 UNK         0.0822 
    119 H119      -80.2862   21.5803  -76.8803 H         1 UNK         0.0807 
    120 H120      -79.4181   21.8523  -75.3685 H         1 UNK         0.0807 
    121 H121      -78.5333   21.4869  -76.8432 H         1 UNK         0.0807 
    122 H122      -81.0689   23.6896  -75.6295 H         1 UNK         0.2946 
    123 H123      -81.8639   27.1761  -75.7048 H         1 UNK         0.1144 
    124 H124      -84.1389   26.1719  -75.8219 H         1 UNK         0.0793 
    125 H125      -83.4648   24.6126  -76.2903 H         1 UNK         0.0793 
    126 H126      -83.3422   25.9926  -77.3746 H         1 UNK         0.0793 
    127 H127      -81.1616   24.9243  -74.1092 H         1 UNK         0.2896 
@<TRIPOS>BOND
     1    1    2 1    
     2    1   67 1    
     3    1   68 1    
     4    1   69 1    
     5    2    3 2    
     6    2    4 am   BACKBONE|DICT|INTERRES
     7    4    5 1    
     8    4   70 1    
     9    5    6 1    
    10    5   65 1    
    11    5   71 1    
    12    6    7 1    
    13    6   72 1    
    14    6   73 1    
    15    7    8 1    
    16    8    9 1    
    17    8   74 1    
    18    8   75 1    
    19    9   10 ar   
    20    9   14 ar   
    21   10   11 ar   
    22   10   76 1    
    23   11   12 ar   
    24   11   48 1    
    25   12   13 ar   
    26   12   77 1    
    27   13   14 ar   
    28   13   15 1    
    29   14   78 1    
    30   15   16 1    
    31   15   79 1    
    32   15   80 1    
    33   16   17 1    
    34   17   18 1    
    35   17   81 1    
    36   17   82 1    
    37   18   19 1    
    38   18   22 1    
    39   18   83 1    
    40   19   20 am   BACKBONE|DICT|INTERRES
    41   19   21 2    
    42   20   84 1    
    43   20   85 1    
    44   22   23 am   BACKBONE|DICT|INTERRES
    45   22   86 1    
    46   23   24 2    
    47   23   25 1    
    48   25   26 1    
    49   25   27 1    
    50   25   87 1    
    51   26   88 1    
    52   26   89 1    
    53   26   90 1    
    54   27   28 am   BACKBONE|DICT|INTERRES
    55   27   91 1    
    56   28   29 2    
    57   28   30 1    
    58   30   31 1    
    59   30   32 1    
    60   30   92 1    
    61   31   93 1    
    62   31   94 1    
    63   31   95 1    
    64   32   33 am   BACKBONE|DICT|INTERRES
    65   32   96 1    
    66   33   34 2    
    67   33   35 1    
    68   35   36 1    
    69   35   37 1    
    70   35   97 1    
    71   36   98 1    
    72   36   99 1    
    73   36  100 1    
    74   37   38 am   BACKBONE|DICT|INTERRES
    75   37  101 1    
    76   38   39 2    
    77   38   40 1    
    78   40   41 1    
    79   40   42 1    
    80   40  102 1    
    81   41  103 1    
    82   41  104 1    
    83   41  105 1    
    84   42   43 am   BACKBONE|DICT|INTERRES
    85   42  106 1    
    86   43   44 2    
    87   43   45 1    
    88   45   46 1    
    89   45   49 1    
    90   45  107 1    
    91   46   47 1    
    92   46  108 1    
    93   46  109 1    
    94   47   48 1    
    95   48  110 1    
    96   48  111 1    
    97   49   50 am   BACKBONE|DICT|INTERRES
    98   49  112 1    
    99   50   51 2    
   100   50   52 1    
   101   52   53 1    
   102   52   54 1    
   103   52  113 1    
   104   53  114 1    
   105   53  115 1    
   106   53  116 1    
   107   54   55 am   BACKBONE|DICT|INTERRES
   108   54  117 1    
   109   55   56 2    
   110   55   57 1    
   111   57   58 1    
   112   57   59 1    
   113   57  118 1    
   114   58  119 1    
   115   58  120 1    
   116   58  121 1    
   117   59   60 am   BACKBONE|DICT|INTERRES
   118   59  122 1    
   119   60   61 2    
   120   60   62 1    
   121   62   63 1    
   122   62   64 1    
   123   62  123 1    
   124   63  124 1    
   125   63  125 1    
   126   63  126 1    
   127   64   65 am   BACKBONE|DICT|INTERRES
   128   64  127 1    
   129   65   66 2    
@<TRIPOS>SUBSTRUCTURE
     1 UNK         1 GROUP             0       ****    0 ROOT    
