@<TRIPOS>MOLECULE
3R135
127   129    1
SMALL
USER_CHARGES


@<TRIPOS>ATOM
      1 CA        -84.9121   24.9565  -71.9484 C.3       0 UNK        -0.1998 
      2 C         -83.4933   25.2337  -72.4214 C.2       0 UNK         0.4909 
      3 O         -82.6909   24.3037  -72.5153 O.2       0 UNK        -0.5240 
      4 N         -83.1874   26.5027  -72.7296 N.am      1 UNK        -0.4739 
      5 CA        -81.8973   27.0468  -73.1905 C.3       1 UNK         0.0864 
      6 C6        -80.7185   26.8019  -72.2112 C.3       11 UNK        -0.0881 
      7 S7        -80.9790   27.6659  -70.6252 S.3       11 UNK        -0.2682 
      8 C8        -79.2630   27.9138  -70.0493 C.3       11 UNK         0.0289 
      9 C9        -78.4531   29.0096  -70.7501 C.ar      11 UNK        -0.0687 
     10 C10       -78.8921   29.6818  -71.8991 C.ar      11 UNK        -0.0823 
     11 C11       -78.0899   30.6446  -72.5181 C.ar      11 UNK        -0.0830 
     12 C12       -76.8435   30.9567  -71.9694 C.ar      11 UNK        -0.1021 
     13 C13       -76.3943   30.3125  -70.8128 C.ar      11 UNK        -0.0753 
     14 C14       -77.2072   29.3446  -70.2119 C.ar      11 UNK        -0.0933 
     15 C15       -75.0419   30.6930  -70.2140 C.3       11 UNK         0.0166 
     16 S16       -74.0656   29.2756  -69.6037 S.3       11 UNK        -0.2615 
     17 C17       -73.7874   28.3329  -71.1409 C.3       11 UNK        -0.0865 
     18 CA        -72.5066   28.7657  -71.9044 C.3       10 UNK         0.0862 
     19 C         -71.2137   28.1049  -71.3307 C.2       10 UNK         0.5551 
     20 N         -70.4337   27.3593  -72.1050 N.am      10 UNK        -0.7319 
     21 O         -70.8974   28.2825  -70.1574 O.2       10 UNK        -0.5018 
     22 N         -72.6961   28.5917  -73.3512 N.am      10 UNK        -0.4509 
     23 C         -72.0056   29.2323  -74.3016 C.2       10 UNK         0.4899 
     24 O         -71.1842   30.1209  -74.0684 O.2       10 UNK        -0.4839 
     25 CA        -72.2729   28.7857  -75.7539 C.3       9 UNK         0.0222 
     26 CB        -71.2170   29.3150  -76.7469 C.3       9 UNK        -0.1966 
     27 N         -72.4240   27.3301  -75.9005 N.am      9 UNK        -0.4218 
     28 C         -71.5493   26.3840  -75.5211 C.2       9 UNK         0.5020 
     29 O         -70.4790   26.6235  -74.9606 O.2       9 UNK        -0.5274 
     30 CA        -71.9277   24.9164  -75.7823 C.3       8 UNK         0.0270 
     31 CB        -72.4043   24.2454  -74.4856 C.3       8 UNK        -0.1976 
     32 N         -72.9425   24.7443  -76.8263 N.am      8 UNK        -0.4313 
     33 C         -72.6796   24.8251  -78.1379 C.2       8 UNK         0.5041 
     34 O         -71.5720   25.1064  -78.5974 O.2       8 UNK        -0.5577 
     35 CA        -73.8368   24.5419  -79.1011 C.3       7 UNK         0.0284 
     36 CB        -74.1940   23.0445  -79.1122 C.3       7 UNK        -0.1958 
     37 N         -75.0216   25.3323  -78.7587 N.am      7 UNK        -0.4454 
     38 C         -75.5407   26.2823  -79.5473 C.2       7 UNK         0.5089 
     39 O         -75.0461   26.6317  -80.6200 O.2       7 UNK        -0.5125 
     40 CA        -76.8524   26.9429  -79.0956 C.3       6 UNK         0.0408 
     41 CB        -78.0579   26.1462  -79.6197 C.3       6 UNK        -0.1791 
     42 N         -76.9839   27.1186  -77.6488 N.am      6 UNK        -0.4762 
     43 C         -76.3118   28.0282  -76.9288 C.2       6 UNK         0.5007 
     44 O         -75.3839   28.7005  -77.3766 O.2       6 UNK        -0.5032 
     45 CA        -76.7661   28.2275  -75.4708 C.3       5 UNK         0.0783 
     46 C46       -78.0619   29.0786  -75.3942 C.3       11 UNK        -0.0857 
     47 S47       -77.6858   30.8606  -75.2740 S.3       11 UNK        -0.2512 
     48 C48       -78.5844   31.3616  -73.7684 C.3       11 UNK         0.0225 
     49 N         -76.9327   26.9329  -74.8147 N.am      5 UNK        -0.4615 
     50 C         -75.9899   26.3379  -74.0750 C.2       4 UNK         0.5053 
     51 O         -74.8865   26.8306  -73.8427 O.2       4 UNK        -0.5105 
     52 CA        -76.3179   24.9360  -73.5302 C.3       4 UNK         0.0263 
     53 CB        -77.0661   25.0454  -72.1925 C.3       4 UNK        -0.1981 
     54 N         -77.0925   24.1159  -74.4665 N.am      4 UNK        -0.4224 
     55 C         -76.6993   23.7989  -75.7089 C.2       3 UNK         0.4895 
     56 O         -75.6072   24.1140  -76.1835 O.2       3 UNK        -0.5091 
     57 CA        -77.7092   23.0587  -76.6025 C.3       3 UNK         0.0250 
     58 CB        -77.4918   21.5411  -76.5057 C.3       3 UNK        -0.1996 
     59 N         -79.1232   23.3696  -76.3454 N.am      3 UNK        -0.4254 
     60 C         -79.6755   24.5930  -76.3327 C.2       2 UNK         0.5004 
     61 O         -79.0192   25.6296  -76.4401 O.2       2 UNK        -0.5226 
     62 CA        -81.2044   24.6859  -76.1703 C.3       2 UNK         0.0269 
     63 CB        -81.9351   23.3313  -76.2742 C.3       2 UNK        -0.1926 
     64 N         -81.5512   25.3097  -74.8948 N.am      2 UNK        -0.4687 
     65 C         -81.5343   26.6209  -74.6276 C.2       1 UNK         0.5165 
     66 O         -81.2723   27.4885  -75.4608 O.2       1 UNK        -0.5079 
     67 H67       -85.3994   24.2495  -72.6194 H         1 UNK         0.0900 
     68 H68       -84.8948   24.5220  -70.9493 H         1 UNK         0.0900 
     69 H69       -85.5160   25.8630  -71.9133 H         1 UNK         0.0900 
     70 H70       -83.9168   27.1972  -72.6442 H         1 UNK         0.2959 
     71 H71       -82.0488   28.1267  -73.2440 H         1 UNK         0.1079 
     72 H72       -79.7816   27.1464  -72.6515 H         1 UNK         0.0837 
     73 H73       -80.5780   25.7387  -72.0127 H         1 UNK         0.0837 
     74 H74       -79.3081   28.1470  -68.9844 H         1 UNK         0.0685 
     75 H75       -78.7255   26.9680  -70.1323 H         1 UNK         0.0685 
     76 H76       -79.8582   29.4636  -72.3279 H         1 UNK         0.1434 
     77 H77       -76.2268   31.7078  -72.4443 H         1 UNK         0.1329 
     78 H78       -76.8658   28.8434  -69.3165 H         1 UNK         0.1335 
     79 H79       -74.4390   31.2353  -70.9442 H         1 UNK         0.0680 
     80 H80       -75.2130   31.3798  -69.3842 H         1 UNK         0.0680 
     81 H81       -73.7633   27.2666  -70.9088 H         1 UNK         0.1032 
     82 H82       -74.6683   28.4635  -71.7705 H         1 UNK         0.1032 
     83 H83       -72.3785   29.8384  -71.7471 H         1 UNK         0.0461 
     84 H84       -70.6355   27.2243  -73.0902 H         1 UNK         0.3453 
     85 H85       -69.6021   26.9516  -71.7094 H         1 UNK         0.3453 
     86 H86       -73.3693   27.8792  -73.6264 H         1 UNK         0.2984 
     87 H87       -73.2307   29.2273  -76.0265 H         1 UNK         0.0554 
     88 H88       -71.1756   30.4047  -76.7327 H         1 UNK         0.0847 
     89 H89       -71.4494   29.0147  -77.7687 H         1 UNK         0.0847 
     90 H90       -70.2185   28.9473  -76.5080 H         1 UNK         0.0847 
     91 H91       -73.2884   27.0204  -76.3210 H         1 UNK         0.3141 
     92 H92       -71.0193   24.4024  -76.1045 H         1 UNK         0.0743 
     93 H93       -73.2629   24.7615  -74.0628 H         1 UNK         0.0784 
     94 H94       -72.6814   23.2040  -74.6503 H         1 UNK         0.0784 
     95 H95       -71.6177   24.2579  -73.7298 H         1 UNK         0.0784 
     96 H96       -73.8827   24.4886  -76.5251 H         1 UNK         0.3213 
     97 H97       -73.4839   24.7953  -80.1032 H         1 UNK         0.0855 
     98 H98       -74.5404   22.6935  -78.1402 H         1 UNK         0.0814 
     99 H99       -73.3272   22.4410  -79.3843 H         1 UNK         0.0814 
    100 H100      -74.9768   22.8321  -79.8404 H         1 UNK         0.0814 
    101 H101      -75.4696   25.1212  -77.8731 H         1 UNK         0.3105 
    102 H102      -76.8893   27.9348  -79.5514 H         1 UNK         0.0547 
    103 H103      -78.0162   26.0426  -80.7048 H         1 UNK         0.0837 
    104 H104      -78.0939   25.1418  -79.1980 H         1 UNK         0.0837 
    105 H105      -78.9976   26.6434  -79.3782 H         1 UNK         0.0837 
    106 H106      -77.7355   26.5973  -77.1975 H         1 UNK         0.3020 
    107 H107      -75.9693   28.7724  -74.9578 H         1 UNK         0.1245 
    108 H108      -78.6506   28.7867  -74.5249 H         1 UNK         0.0781 
    109 H109      -78.7234   28.9063  -76.2462 H         1 UNK         0.0781 
    110 H110      -79.6516   31.1910  -73.9196 H         1 UNK         0.0836 
    111 H111      -78.4678   32.4377  -73.6322 H         1 UNK         0.0836 
    112 H112      -77.7784   26.4218  -75.0426 H         1 UNK         0.3022 
    113 H113      -75.3760   24.4188  -73.3457 H         1 UNK         0.0747 
    114 H114      -77.2104   24.0659  -71.7364 H         1 UNK         0.0793 
    115 H115      -76.5062   25.6540  -71.4805 H         1 UNK         0.0793 
    116 H116      -78.0452   25.5068  -72.3143 H         1 UNK         0.0793 
    117 H117      -78.0075   23.8144  -74.1656 H         1 UNK         0.3047 
    118 H118      -77.4992   23.3616  -77.6298 H         1 UNK         0.0822 
    119 H119      -78.1074   21.0042  -77.2277 H         1 UNK         0.0807 
    120 H120      -77.7298   21.1611  -75.5114 H         1 UNK         0.0807 
    121 H121      -76.4529   21.2805  -76.7143 H         1 UNK         0.0807 
    122 H122      -79.7393   22.5770  -76.2354 H         1 UNK         0.2946 
    123 H123      -81.5625   25.3233  -76.9821 H         1 UNK         0.1144 
    124 H124      -83.0158   23.4714  -76.2367 H         1 UNK         0.0793 
    125 H125      -81.6678   22.6541  -75.4619 H         1 UNK         0.0793 
    126 H126      -81.7160   22.8317  -77.2191 H         1 UNK         0.0793 
    127 H127      -81.8148   24.6924  -74.1302 H         1 UNK         0.2896 
@<TRIPOS>BOND
     1    1    2 1    
     2    1   67 1    
     3    1   68 1    
     4    1   69 1    
     5    2    3 2    
     6    2    4 am   BACKBONE|DICT|INTERRES
     7    4    5 1    
     8    4   70 1    
     9    5    6 1    
    10    5   65 1    
    11    5   71 1    
    12    6    7 1    
    13    6   72 1    
    14    6   73 1    
    15    7    8 1    
    16    8    9 1    
    17    8   74 1    
    18    8   75 1    
    19    9   10 ar   
    20    9   14 ar   
    21   10   11 ar   
    22   10   76 1    
    23   11   12 ar   
    24   11   48 1    
    25   12   13 ar   
    26   12   77 1    
    27   13   14 ar   
    28   13   15 1    
    29   14   78 1    
    30   15   16 1    
    31   15   79 1    
    32   15   80 1    
    33   16   17 1    
    34   17   18 1    
    35   17   81 1    
    36   17   82 1    
    37   18   19 1    
    38   18   22 1    
    39   18   83 1    
    40   19   20 am   BACKBONE|DICT|INTERRES
    41   19   21 2    
    42   20   84 1    
    43   20   85 1    
    44   22   23 am   BACKBONE|DICT|INTERRES
    45   22   86 1    
    46   23   24 2    
    47   23   25 1    
    48   25   26 1    
    49   25   27 1    
    50   25   87 1    
    51   26   88 1    
    52   26   89 1    
    53   26   90 1    
    54   27   28 am   BACKBONE|DICT|INTERRES
    55   27   91 1    
    56   28   29 2    
    57   28   30 1    
    58   30   31 1    
    59   30   32 1    
    60   30   92 1    
    61   31   93 1    
    62   31   94 1    
    63   31   95 1    
    64   32   33 am   BACKBONE|DICT|INTERRES
    65   32   96 1    
    66   33   34 2    
    67   33   35 1    
    68   35   36 1    
    69   35   37 1    
    70   35   97 1    
    71   36   98 1    
    72   36   99 1    
    73   36  100 1    
    74   37   38 am   BACKBONE|DICT|INTERRES
    75   37  101 1    
    76   38   39 2    
    77   38   40 1    
    78   40   41 1    
    79   40   42 1    
    80   40  102 1    
    81   41  103 1    
    82   41  104 1    
    83   41  105 1    
    84   42   43 am   BACKBONE|DICT|INTERRES
    85   42  106 1    
    86   43   44 2    
    87   43   45 1    
    88   45   46 1    
    89   45   49 1    
    90   45  107 1    
    91   46   47 1    
    92   46  108 1    
    93   46  109 1    
    94   47   48 1    
    95   48  110 1    
    96   48  111 1    
    97   49   50 am   BACKBONE|DICT|INTERRES
    98   49  112 1    
    99   50   51 2    
   100   50   52 1    
   101   52   53 1    
   102   52   54 1    
   103   52  113 1    
   104   53  114 1    
   105   53  115 1    
   106   53  116 1    
   107   54   55 am   BACKBONE|DICT|INTERRES
   108   54  117 1    
   109   55   56 2    
   110   55   57 1    
   111   57   58 1    
   112   57   59 1    
   113   57  118 1    
   114   58  119 1    
   115   58  120 1    
   116   58  121 1    
   117   59   60 am   BACKBONE|DICT|INTERRES
   118   59  122 1    
   119   60   61 2    
   120   60   62 1    
   121   62   63 1    
   122   62   64 1    
   123   62  123 1    
   124   63  124 1    
   125   63  125 1    
   126   63  126 1    
   127   64   65 am   BACKBONE|DICT|INTERRES
   128   64  127 1    
   129   65   66 2    
@<TRIPOS>SUBSTRUCTURE
     1 UNK         1 GROUP             0       ****    0 ROOT    
