@<TRIPOS>MOLECULE
3R135
127   129    1
SMALL
USER_CHARGES


@<TRIPOS>ATOM
      1 CA        -85.0829   24.8417  -73.9087 C.3       0 UNK        -0.1998 
      2 C         -84.1016   25.9805  -74.1416 C.2       0 UNK         0.4909 
      3 O         -83.6872   26.2068  -75.2790 O.2       0 UNK        -0.5240 
      4 N         -83.7269   26.6993  -73.0739 N.am      1 UNK        -0.4739 
      5 CA        -82.7577   27.8012  -73.0912 C.3       1 UNK         0.0864 
      6 C6        -82.6819   28.4994  -71.7093 C.3       11 UNK        -0.0881 
      7 S7        -81.9913   30.1873  -71.7985 S.3       11 UNK        -0.2682 
      8 C8        -80.5797   30.0972  -70.6470 C.3       11 UNK         0.0289 
      9 C9        -79.3305   29.5386  -71.3136 C.ar      11 UNK        -0.0687 
     10 C10       -78.9776   28.1952  -71.1574 C.ar      11 UNK        -0.0823 
     11 C11       -77.8429   27.6715  -71.7866 C.ar      11 UNK        -0.0830 
     12 C12       -77.0399   28.5339  -72.5436 C.ar      11 UNK        -0.1021 
     13 C13       -77.3816   29.8794  -72.7254 C.ar      11 UNK        -0.0753 
     14 C14       -78.5291   30.3715  -72.0986 C.ar      11 UNK        -0.0933 
     15 C15       -76.5875   30.8224  -73.6337 C.3       11 UNK         0.0166 
     16 S16       -75.0187   30.1622  -74.3022 S.3       11 UNK        -0.2615 
     17 C17       -73.8861   30.4367  -72.8986 C.3       11 UNK        -0.0865 
     18 CA        -72.3997   30.4215  -73.3610 C.3       10 UNK         0.0862 
     19 C         -71.4285   31.1475  -72.3769 C.2       10 UNK         0.5551 
     20 N         -70.1436   30.8124  -72.3614 N.am      10 UNK        -0.7319 
     21 O         -71.8283   32.0479  -71.6423 O.2       10 UNK        -0.5018 
     22 N         -71.9547   29.0826  -73.7951 N.am      10 UNK        -0.4509 
     23 C         -71.7229   28.0278  -72.9965 C.2       10 UNK         0.4899 
     24 O         -71.9139   28.0472  -71.7801 O.2       10 UNK        -0.4839 
     25 CA        -71.1715   26.7334  -73.6329 C.3       9 UNK         0.0222 
     26 CB        -71.8769   25.4847  -73.0798 C.3       9 UNK        -0.1966 
     27 N         -71.2382   26.7242  -75.0977 N.am      9 UNK        -0.4218 
     28 C         -70.2955   27.2405  -75.8991 C.2       9 UNK         0.5020 
     29 O         -69.2463   27.7402  -75.4908 O.2       9 UNK        -0.5274 
     30 CA        -70.5842   27.2365  -77.4095 C.3       8 UNK         0.0270 
     31 CB        -70.1651   25.8963  -78.0348 C.3       8 UNK        -0.1976 
     32 N         -71.9841   27.5064  -77.7447 N.am      8 UNK        -0.4313 
     33 C         -72.6892   28.5954  -77.4140 C.2       8 UNK         0.5041 
     34 O         -72.2214   29.5280  -76.7606 O.2       8 UNK        -0.5577 
     35 CA        -74.1657   28.6577  -77.8588 C.3       7 UNK         0.0284 
     36 CB        -74.3050   29.3961  -79.2039 C.3       7 UNK        -0.1958 
     37 N         -74.8641   27.3609  -77.8800 N.am      7 UNK        -0.4454 
     38 C         -74.6350   26.2908  -78.6561 C.2       7 UNK         0.5089 
     39 O         -73.7837   26.2615  -79.5462 O.2       7 UNK        -0.5125 
     40 CA        -75.4490   25.0241  -78.3296 C.3       6 UNK         0.0408 
     41 CB        -74.8278   23.7474  -78.9332 C.3       6 UNK        -0.1791 
     42 N         -75.6847   24.8383  -76.8926 N.am      6 UNK        -0.4762 
     43 C         -74.7697   24.7431  -75.9125 C.2       6 UNK         0.5007 
     44 O         -73.5571   24.8966  -76.0753 O.2       6 UNK        -0.5032 
     45 CA        -75.3106   24.4443  -74.4996 C.3       5 UNK         0.0783 
     46 C46       -75.6963   25.7690  -73.8018 C.3       11 UNK        -0.0857 
     47 S47       -75.8616   25.6106  -71.9914 S.3       11 UNK        -0.2512 
     48 C48       -77.5803   26.1624  -71.6892 C.3       11 UNK         0.0225 
     49 N         -76.4201   23.4846  -74.5392 N.am      5 UNK        -0.4615 
     50 C         -76.3023   22.1945  -74.8823 C.2       4 UNK         0.5053 
     51 O         -75.2181   21.6436  -75.0739 O.2       4 UNK        -0.5105 
     52 CA        -77.5930   21.3759  -75.0916 C.3       4 UNK         0.0263 
     53 CB        -78.0121   20.6477  -73.7987 C.3       4 UNK        -0.1981 
     54 N         -78.7038   22.1361  -75.6903 N.am      4 UNK        -0.4224 
     55 C         -79.4254   23.1197  -75.1370 C.2       3 UNK         0.4895 
     56 O         -79.3054   23.4826  -73.9654 O.2       3 UNK        -0.5091 
     57 CA        -80.4135   23.8514  -76.0661 C.3       3 UNK         0.0250 
     58 CB        -81.8259   23.2662  -75.9125 C.3       3 UNK        -0.1996 
     59 N         -80.4567   25.2901  -75.7864 N.am      3 UNK        -0.4254 
     60 C         -79.3946   26.1097  -75.8094 C.2       2 UNK         0.5004 
     61 O         -78.2931   25.7695  -76.2454 O.2       2 UNK        -0.5226 
     62 CA        -79.5557   27.5365  -75.2452 C.3       2 UNK         0.0269 
     63 CB        -79.2133   28.5946  -76.3074 C.3       2 UNK        -0.1926 
     64 N         -80.8652   27.8489  -74.6598 N.am      2 UNK        -0.4687 
     65 C         -81.3759   27.2957  -73.5501 C.2       1 UNK         0.5165 
     66 O         -80.8263   26.3995  -72.9094 O.2       1 UNK        -0.5079 
     67 H67       -85.9970   25.0137  -74.4762 H         1 UNK         0.0900 
     68 H68       -85.3501   24.7417  -72.8569 H         1 UNK         0.0900 
     69 H69       -84.6495   23.8985  -74.2394 H         1 UNK         0.0900 
     70 H70       -84.0821   26.4455  -72.1632 H         1 UNK         0.2959 
     71 H71       -83.1263   28.5259  -73.8208 H         1 UNK         0.1079 
     72 H72       -83.6858   28.6036  -71.2944 H         1 UNK         0.0837 
     73 H73       -82.1305   27.8924  -70.9887 H         1 UNK         0.0837 
     74 H74       -80.3690   31.1028  -70.2799 H         1 UNK         0.0685 
     75 H75       -80.8491   29.5095  -69.7681 H         1 UNK         0.0685 
     76 H76       -79.6144   27.5416  -70.5770 H         1 UNK         0.1434 
     77 H77       -76.1608   28.1517  -73.0270 H         1 UNK         0.1329 
     78 H78       -78.8128   31.4062  -72.2366 H         1 UNK         0.1335 
     79 H79       -77.2224   31.0775  -74.4832 H         1 UNK         0.0680 
     80 H80       -76.3915   31.7588  -73.1095 H         1 UNK         0.0680 
     81 H81       -74.0687   29.6881  -72.1262 H         1 UNK         0.1032 
     82 H82       -74.1438   31.3991  -72.4540 H         1 UNK         0.1032 
     83 H83       -72.3430   31.0375  -74.2594 H         1 UNK         0.0461 
     84 H84       -69.5149   31.2888  -71.7341 H         1 UNK         0.3453 
     85 H85       -69.7993   30.0878  -72.9712 H         1 UNK         0.3453 
     86 H86       -71.7952   28.9957  -74.7929 H         1 UNK         0.2984 
     87 H87       -70.1241   26.6634  -73.3326 H         1 UNK         0.0554 
     88 H88       -71.5393   24.5756  -73.5777 H         1 UNK         0.0847 
     89 H89       -72.9546   25.5556  -73.1958 H         1 UNK         0.0847 
     90 H90       -71.6780   25.3635  -72.0143 H         1 UNK         0.0847 
     91 H91       -72.0606   26.3052  -75.5204 H         1 UNK         0.3141 
     92 H92       -69.9843   28.0295  -77.8604 H         1 UNK         0.0743 
     93 H93       -70.7655   25.0690  -77.6531 H         1 UNK         0.0784 
     94 H94       -70.2714   25.9142  -79.1197 H         1 UNK         0.0784 
     95 H95       -69.1202   25.6716  -77.8157 H         1 UNK         0.0784 
     96 H96       -72.4577   26.8232  -78.3304 H         1 UNK         0.3213 
     97 H97       -74.6851   29.2551  -77.1087 H         1 UNK         0.0855 
     98 H98       -73.8807   30.3990  -79.1398 H         1 UNK         0.0814 
     99 H99       -75.3510   29.5050  -79.4903 H         1 UNK         0.0814 
    100 H100      -73.7869   28.8788  -80.0118 H         1 UNK         0.0814 
    101 H101      -75.5676   27.2445  -77.1637 H         1 UNK         0.3105 
    102 H102      -76.4300   25.1658  -78.7851 H         1 UNK         0.0547 
    103 H103      -74.7585   23.8195  -80.0193 H         1 UNK         0.0837 
    104 H104      -73.8208   23.5709  -78.5534 H         1 UNK         0.0837 
    105 H105      -75.4299   22.8678  -78.7060 H         1 UNK         0.0837 
    106 H106      -76.6651   24.8377  -76.6177 H         1 UNK         0.3020 
    107 H107      -74.4946   23.9768  -73.9446 H         1 UNK         0.1245 
    108 H108      -76.6192   26.1662  -74.2257 H         1 UNK         0.0781 
    109 H109      -74.9343   26.5313  -73.9787 H         1 UNK         0.0781 
    110 H110      -77.8595   25.8191  -70.6921 H         1 UNK         0.0836 
    111 H111      -78.2443   25.6443  -72.3829 H         1 UNK         0.0836 
    112 H112      -77.3503   23.8409  -74.3479 H         1 UNK         0.3022 
    113 H113      -77.3480   20.6066  -75.8259 H         1 UNK         0.0747 
    114 H114      -78.9062   20.0443  -73.9544 H         1 UNK         0.0793 
    115 H115      -77.2218   19.9759  -73.4613 H         1 UNK         0.0793 
    116 H116      -78.2118   21.3410  -72.9814 H         1 UNK         0.0793 
    117 H117      -78.8729   21.9292  -76.6655 H         1 UNK         0.3047 
    118 H118      -80.0884   23.7280  -77.1012 H         1 UNK         0.0822 
    119 H119      -82.5370   23.7619  -76.5740 H         1 UNK         0.0807 
    120 H120      -82.1914   23.3697  -74.8899 H         1 UNK         0.0807 
    121 H121      -81.8396   22.2036  -76.1583 H         1 UNK         0.0807 
    122 H122      -81.3211   25.6502  -75.4052 H         1 UNK         0.2946 
    123 H123      -78.8208   27.6199  -74.4446 H         1 UNK         0.1144 
    124 H124      -78.2192   28.4270  -76.7245 H         1 UNK         0.0793 
    125 H125      -79.2134   29.5978  -75.8803 H         1 UNK         0.0793 
    126 H126      -79.9224   28.5780  -77.1356 H         1 UNK         0.0793 
    127 H127      -81.4076   28.5529  -75.1396 H         1 UNK         0.2896 
@<TRIPOS>BOND
     1    1    2 1    
     2    1   67 1    
     3    1   68 1    
     4    1   69 1    
     5    2    3 2    
     6    2    4 am   BACKBONE|DICT|INTERRES
     7    4    5 1    
     8    4   70 1    
     9    5    6 1    
    10    5   65 1    
    11    5   71 1    
    12    6    7 1    
    13    6   72 1    
    14    6   73 1    
    15    7    8 1    
    16    8    9 1    
    17    8   74 1    
    18    8   75 1    
    19    9   10 ar   
    20    9   14 ar   
    21   10   11 ar   
    22   10   76 1    
    23   11   12 ar   
    24   11   48 1    
    25   12   13 ar   
    26   12   77 1    
    27   13   14 ar   
    28   13   15 1    
    29   14   78 1    
    30   15   16 1    
    31   15   79 1    
    32   15   80 1    
    33   16   17 1    
    34   17   18 1    
    35   17   81 1    
    36   17   82 1    
    37   18   19 1    
    38   18   22 1    
    39   18   83 1    
    40   19   20 am   BACKBONE|DICT|INTERRES
    41   19   21 2    
    42   20   84 1    
    43   20   85 1    
    44   22   23 am   BACKBONE|DICT|INTERRES
    45   22   86 1    
    46   23   24 2    
    47   23   25 1    
    48   25   26 1    
    49   25   27 1    
    50   25   87 1    
    51   26   88 1    
    52   26   89 1    
    53   26   90 1    
    54   27   28 am   BACKBONE|DICT|INTERRES
    55   27   91 1    
    56   28   29 2    
    57   28   30 1    
    58   30   31 1    
    59   30   32 1    
    60   30   92 1    
    61   31   93 1    
    62   31   94 1    
    63   31   95 1    
    64   32   33 am   BACKBONE|DICT|INTERRES
    65   32   96 1    
    66   33   34 2    
    67   33   35 1    
    68   35   36 1    
    69   35   37 1    
    70   35   97 1    
    71   36   98 1    
    72   36   99 1    
    73   36  100 1    
    74   37   38 am   BACKBONE|DICT|INTERRES
    75   37  101 1    
    76   38   39 2    
    77   38   40 1    
    78   40   41 1    
    79   40   42 1    
    80   40  102 1    
    81   41  103 1    
    82   41  104 1    
    83   41  105 1    
    84   42   43 am   BACKBONE|DICT|INTERRES
    85   42  106 1    
    86   43   44 2    
    87   43   45 1    
    88   45   46 1    
    89   45   49 1    
    90   45  107 1    
    91   46   47 1    
    92   46  108 1    
    93   46  109 1    
    94   47   48 1    
    95   48  110 1    
    96   48  111 1    
    97   49   50 am   BACKBONE|DICT|INTERRES
    98   49  112 1    
    99   50   51 2    
   100   50   52 1    
   101   52   53 1    
   102   52   54 1    
   103   52  113 1    
   104   53  114 1    
   105   53  115 1    
   106   53  116 1    
   107   54   55 am   BACKBONE|DICT|INTERRES
   108   54  117 1    
   109   55   56 2    
   110   55   57 1    
   111   57   58 1    
   112   57   59 1    
   113   57  118 1    
   114   58  119 1    
   115   58  120 1    
   116   58  121 1    
   117   59   60 am   BACKBONE|DICT|INTERRES
   118   59  122 1    
   119   60   61 2    
   120   60   62 1    
   121   62   63 1    
   122   62   64 1    
   123   62  123 1    
   124   63  124 1    
   125   63  125 1    
   126   63  126 1    
   127   64   65 am   BACKBONE|DICT|INTERRES
   128   64  127 1    
   129   65   66 2    
@<TRIPOS>SUBSTRUCTURE
     1 UNK         1 GROUP             0       ****    0 ROOT    
