@<TRIPOS>MOLECULE
3R135
127   129    1
SMALL
USER_CHARGES


@<TRIPOS>ATOM
      1 CA        -84.2394   25.9764  -74.8847 C.3       0 UNK        -0.1998 
      2 C         -83.0731   26.9171  -75.1459 C.2       0 UNK         0.4909 
      3 O         -82.5716   26.9746  -76.2691 O.2       0 UNK        -0.5240 
      4 N         -82.6387   27.6586  -74.1193 N.am      1 UNK        -0.4739 
      5 CA        -81.4669   28.5398  -74.1601 C.3       1 UNK         0.0864 
      6 C6        -81.4596   29.5661  -72.9942 C.3       11 UNK        -0.0881 
      7 S7        -81.7617   28.8576  -71.3364 S.3       11 UNK        -0.2682 
      8 C8        -80.2896   29.4048  -70.4008 C.3       11 UNK         0.0289 
      9 C9        -79.0174   28.6113  -70.6938 C.ar      11 UNK        -0.0687 
     10 C10       -79.0590   27.2352  -70.9369 C.ar      11 UNK        -0.0823 
     11 C11       -77.8917   26.5034  -71.1696 C.ar      11 UNK        -0.0830 
     12 C12       -76.6569   27.1648  -71.1378 C.ar      11 UNK        -0.1021 
     13 C13       -76.5949   28.5357  -70.8695 C.ar      11 UNK        -0.0753 
     14 C14       -77.7765   29.2535  -70.6588 C.ar      11 UNK        -0.0933 
     15 C15       -75.2514   29.2384  -70.7589 C.3       11 UNK         0.0166 
     16 S16       -74.7894   30.0667  -72.3085 S.3       11 UNK        -0.2615 
     17 C17       -73.4166   31.0982  -71.6946 C.3       11 UNK        -0.0865 
     18 CA        -72.7092   31.8958  -72.8185 C.3       10 UNK         0.0862 
     19 C         -71.6892   32.8959  -72.2062 C.2       10 UNK         0.5551 
     20 N         -72.1030   34.1315  -71.9606 N.am      10 UNK        -0.7319 
     21 O         -70.5473   32.5473  -71.9106 O.2       10 UNK        -0.5018 
     22 N         -72.0972   30.9946  -73.8049 N.am      10 UNK        -0.4509 
     23 C         -71.5271   31.3751  -74.9554 C.2       10 UNK         0.4899 
     24 O         -71.5044   32.5380  -75.3609 O.2       10 UNK        -0.4839 
     25 CA        -70.8626   30.2766  -75.8065 C.3       9 UNK         0.0222 
     26 CB        -69.3398   30.2859  -75.5917 C.3       9 UNK        -0.1966 
     27 N         -71.3768   28.9263  -75.5499 N.am      9 UNK        -0.4218 
     28 C         -72.5966   28.4983  -75.9019 C.2       9 UNK         0.5020 
     29 O         -73.4401   29.2090  -76.4539 O.2       9 UNK        -0.5274 
     30 CA        -72.9233   27.0330  -75.5553 C.3       8 UNK         0.0270 
     31 CB        -73.4514   26.9136  -74.1155 C.3       8 UNK        -0.1976 
     32 N         -73.8941   26.4345  -76.4747 N.am      8 UNK        -0.4313 
     33 C         -73.6984   26.2541  -77.7877 C.2       8 UNK         0.5041 
     34 O         -72.6462   26.5185  -78.3750 O.2       8 UNK        -0.5577 
     35 CA        -74.8846   25.6426  -78.5514 C.3       7 UNK         0.0284 
     36 CB        -74.6910   25.6262  -80.0831 C.3       7 UNK        -0.1958 
     37 N         -75.2126   24.3075  -78.0374 N.am      7 UNK        -0.4454 
     38 C         -74.4402   23.2105  -78.0603 C.2       7 UNK         0.5089 
     39 O         -73.3307   23.1501  -78.5928 O.2       7 UNK        -0.5125 
     40 CA        -75.0288   21.9645  -77.3709 C.3       6 UNK         0.0408 
     41 CB        -73.9925   20.8389  -77.1654 C.3       6 UNK        -0.1791 
     42 N         -75.7210   22.2756  -76.1143 N.am      6 UNK        -0.4762 
     43 C         -75.1964   22.8042  -74.9946 C.2       6 UNK         0.5007 
     44 O         -74.0120   23.1216  -74.8836 O.2       6 UNK        -0.5032 
     45 CA        -76.1629   22.9981  -73.8042 C.3       5 UNK         0.0783 
     46 C46       -75.7063   24.1077  -72.8189 C.3       11 UNK        -0.0857 
     47 S47       -76.5589   23.9808  -71.2113 S.3       11 UNK        -0.2512 
     48 C48       -78.0420   25.0135  -71.4689 C.3       11 UNK         0.0225 
     49 N         -77.5089   23.2693  -74.3116 N.am      5 UNK        -0.4615 
     50 C         -78.5493   22.4277  -74.2957 C.2       4 UNK         0.5053 
     51 O         -78.5056   21.2966  -73.8132 O.2       4 UNK        -0.5105 
     52 CA        -79.8572   22.9187  -74.9483 C.3       4 UNK         0.0263 
     53 CB        -80.9145   23.2349  -73.8776 C.3       4 UNK        -0.1981 
     54 N         -79.6733   24.0929  -75.8095 N.am      4 UNK        -0.4224 
     55 C         -79.0449   24.0702  -76.9962 C.2       3 UNK         0.4895 
     56 O         -78.5844   23.0483  -77.5051 O.2       3 UNK        -0.5091 
     57 CA        -78.8293   25.4163  -77.7093 C.3       3 UNK         0.0250 
     58 CB        -79.9973   25.7147  -78.6609 C.3       3 UNK        -0.1996 
     59 N         -78.6487   26.5407  -76.7877 N.am      3 UNK        -0.4254 
     60 C         -77.6645   26.6606  -75.8835 C.2       2 UNK         0.5004 
     61 O         -76.7326   25.8604  -75.7794 O.2       2 UNK        -0.5226 
     62 CA        -77.7450   27.8526  -74.9124 C.3       2 UNK         0.0269 
     63 CB        -76.8061   28.9752  -75.3730 C.3       2 UNK        -0.1926 
     64 N         -79.0922   28.4087  -74.7375 N.am      2 UNK        -0.4687 
     65 C         -80.1506   27.7393  -74.2593 C.2       1 UNK         0.5165 
     66 O         -80.1129   26.5474  -73.9409 O.2       1 UNK        -0.5079 
     67 H67       -85.0900   26.2516  -75.5076 H         1 UNK         0.0900 
     68 H68       -83.9560   24.9526  -75.1271 H         1 UNK         0.0900 
     69 H69       -84.5577   26.0023  -73.8427 H         1 UNK         0.0900 
     70 H70       -83.0597   27.5530  -73.2069 H         1 UNK         0.2959 
     71 H71       -81.5409   29.1132  -75.0873 H         1 UNK         0.1079 
     72 H72       -82.2475   30.3002  -73.1698 H         1 UNK         0.0837 
     73 H73       -80.5327   30.1428  -72.9882 H         1 UNK         0.0837 
     74 H74       -80.5078   29.3074  -69.3367 H         1 UNK         0.0685 
     75 H75       -80.1310   30.4688  -70.5836 H         1 UNK         0.0685 
     76 H76       -80.0120   26.7247  -70.9570 H         1 UNK         0.1434 
     77 H77       -75.7386   26.6220  -71.3085 H         1 UNK         0.1329 
     78 H78       -77.7246   30.3130  -70.4476 H         1 UNK         0.1335 
     79 H79       -74.4697   28.5271  -70.4863 H         1 UNK         0.0680 
     80 H80       -75.2942   29.9716  -69.9515 H         1 UNK         0.0680 
     81 H81       -73.8265   31.7816  -70.9477 H         1 UNK         0.1032 
     82 H82       -72.7010   30.4639  -71.1670 H         1 UNK         0.1032 
     83 H83       -73.4675   32.4755  -73.3494 H         1 UNK         0.0461 
     84 H84       -73.0405   34.4231  -72.1909 H         1 UNK         0.3453 
     85 H85       -71.4614   34.7907  -71.5481 H         1 UNK         0.3453 
     86 H86       -72.0724   30.0182  -73.5567 H         1 UNK         0.2984 
     87 H87       -71.0575   30.5153  -76.8544 H         1 UNK         0.0554 
     88 H88       -68.9214   31.2696  -75.8104 H         1 UNK         0.0847 
     89 H89       -68.8398   29.5722  -76.2469 H         1 UNK         0.0847 
     90 H90       -69.0747   30.0430  -74.5617 H         1 UNK         0.0847 
     91 H91       -70.7458   28.2797  -75.0975 H         1 UNK         0.3141 
     92 H92       -72.0021   26.4518  -75.6340 H         1 UNK         0.0743 
     93 H93       -74.4234   27.3920  -73.9939 H         1 UNK         0.0784 
     94 H94       -73.5527   25.8684  -73.8261 H         1 UNK         0.0784 
     95 H95       -72.7699   27.3776  -73.4016 H         1 UNK         0.0784 
     96 H96       -74.8011   26.1870  -76.0902 H         1 UNK         0.3213 
     97 H97       -75.7424   26.2836  -78.3452 H         1 UNK         0.0855 
     98 H98       -73.8234   25.0377  -80.3821 H         1 UNK         0.0814 
     99 H99       -74.5397   26.6371  -80.4635 H         1 UNK         0.0814 
    100 H100      -75.5652   25.2165  -80.5888 H         1 UNK         0.0814 
    101 H101      -76.0726   24.2443  -77.5099 H         1 UNK         0.3105 
    102 H102      -75.7943   21.5824  -78.0480 H         1 UNK         0.0547 
    103 H103      -74.4425   19.9652  -76.6944 H         1 UNK         0.0837 
    104 H104      -73.1579   21.1639  -76.5435 H         1 UNK         0.0837 
    105 H105      -73.5766   20.5123  -78.1192 H         1 UNK         0.0837 
    106 H106      -76.7142   22.0822  -76.1133 H         1 UNK         0.3020 
    107 H107      -76.1501   22.0461  -73.2684 H         1 UNK         0.1245 
    108 H108      -75.8551   25.1000  -73.2475 H         1 UNK         0.0781 
    109 H109      -74.6406   24.0246  -72.5996 H         1 UNK         0.0781 
    110 H110      -78.8285   24.6032  -70.8335 H         1 UNK         0.0836 
    111 H111      -78.4004   24.9112  -72.4910 H         1 UNK         0.0836 
    112 H112      -77.6162   24.1657  -74.7699 H         1 UNK         0.3022 
    113 H113      -80.2356   22.1023  -75.5671 H         1 UNK         0.0747 
    114 H114      -81.8583   23.5398  -74.3294 H         1 UNK         0.0793 
    115 H115      -81.1191   22.3588  -73.2608 H         1 UNK         0.0793 
    116 H116      -80.5910   24.0330  -73.2093 H         1 UNK         0.0793 
    117 H117      -79.9814   24.9824  -75.4308 H         1 UNK         0.3047 
    118 H118      -77.9240   25.3283  -78.3108 H         1 UNK         0.0822 
    119 H119      -79.8234   26.6277  -79.2307 H         1 UNK         0.0807 
    120 H120      -80.9389   25.8285  -78.1225 H         1 UNK         0.0807 
    121 H121      -80.1301   24.9058  -79.3809 H         1 UNK         0.0807 
    122 H122      -79.3704   27.2472  -76.7930 H         1 UNK         0.2946 
    123 H123      -77.4054   27.4943  -73.9384 H         1 UNK         0.1144 
    124 H124      -76.7711   29.7875  -74.6470 H         1 UNK         0.0793 
    125 H125      -77.1103   29.3927  -76.3334 H         1 UNK         0.0793 
    126 H126      -75.7880   28.6072  -75.4887 H         1 UNK         0.0793 
    127 H127      -79.2032   29.3825  -74.9816 H         1 UNK         0.2896 
@<TRIPOS>BOND
     1    1    2 1    
     2    1   67 1    
     3    1   68 1    
     4    1   69 1    
     5    2    3 2    
     6    2    4 am   BACKBONE|DICT|INTERRES
     7    4    5 1    
     8    4   70 1    
     9    5    6 1    
    10    5   65 1    
    11    5   71 1    
    12    6    7 1    
    13    6   72 1    
    14    6   73 1    
    15    7    8 1    
    16    8    9 1    
    17    8   74 1    
    18    8   75 1    
    19    9   10 ar   
    20    9   14 ar   
    21   10   11 ar   
    22   10   76 1    
    23   11   12 ar   
    24   11   48 1    
    25   12   13 ar   
    26   12   77 1    
    27   13   14 ar   
    28   13   15 1    
    29   14   78 1    
    30   15   16 1    
    31   15   79 1    
    32   15   80 1    
    33   16   17 1    
    34   17   18 1    
    35   17   81 1    
    36   17   82 1    
    37   18   19 1    
    38   18   22 1    
    39   18   83 1    
    40   19   20 am   BACKBONE|DICT|INTERRES
    41   19   21 2    
    42   20   84 1    
    43   20   85 1    
    44   22   23 am   BACKBONE|DICT|INTERRES
    45   22   86 1    
    46   23   24 2    
    47   23   25 1    
    48   25   26 1    
    49   25   27 1    
    50   25   87 1    
    51   26   88 1    
    52   26   89 1    
    53   26   90 1    
    54   27   28 am   BACKBONE|DICT|INTERRES
    55   27   91 1    
    56   28   29 2    
    57   28   30 1    
    58   30   31 1    
    59   30   32 1    
    60   30   92 1    
    61   31   93 1    
    62   31   94 1    
    63   31   95 1    
    64   32   33 am   BACKBONE|DICT|INTERRES
    65   32   96 1    
    66   33   34 2    
    67   33   35 1    
    68   35   36 1    
    69   35   37 1    
    70   35   97 1    
    71   36   98 1    
    72   36   99 1    
    73   36  100 1    
    74   37   38 am   BACKBONE|DICT|INTERRES
    75   37  101 1    
    76   38   39 2    
    77   38   40 1    
    78   40   41 1    
    79   40   42 1    
    80   40  102 1    
    81   41  103 1    
    82   41  104 1    
    83   41  105 1    
    84   42   43 am   BACKBONE|DICT|INTERRES
    85   42  106 1    
    86   43   44 2    
    87   43   45 1    
    88   45   46 1    
    89   45   49 1    
    90   45  107 1    
    91   46   47 1    
    92   46  108 1    
    93   46  109 1    
    94   47   48 1    
    95   48  110 1    
    96   48  111 1    
    97   49   50 am   BACKBONE|DICT|INTERRES
    98   49  112 1    
    99   50   51 2    
   100   50   52 1    
   101   52   53 1    
   102   52   54 1    
   103   52  113 1    
   104   53  114 1    
   105   53  115 1    
   106   53  116 1    
   107   54   55 am   BACKBONE|DICT|INTERRES
   108   54  117 1    
   109   55   56 2    
   110   55   57 1    
   111   57   58 1    
   112   57   59 1    
   113   57  118 1    
   114   58  119 1    
   115   58  120 1    
   116   58  121 1    
   117   59   60 am   BACKBONE|DICT|INTERRES
   118   59  122 1    
   119   60   61 2    
   120   60   62 1    
   121   62   63 1    
   122   62   64 1    
   123   62  123 1    
   124   63  124 1    
   125   63  125 1    
   126   63  126 1    
   127   64   65 am   BACKBONE|DICT|INTERRES
   128   64  127 1    
   129   65   66 2    
@<TRIPOS>SUBSTRUCTURE
     1 UNK         1 GROUP             0       ****    0 ROOT    
