@<TRIPOS>MOLECULE
3R135
127   129    1
SMALL
USER_CHARGES


@<TRIPOS>ATOM
      1 CA        -80.8089   29.1220  -70.5705 C.3       0 UNK        -0.1998 
      2 C         -81.6214   28.6411  -71.7632 C.2       0 UNK         0.4909 
      3 O         -82.8149   28.3724  -71.6267 O.2       0 UNK        -0.5240 
      4 N         -80.9798   28.5347  -72.9337 N.am      1 UNK        -0.4739 
      5 CA        -81.5891   28.1296  -74.2093 C.3       1 UNK         0.0864 
      6 C6        -80.6610   28.3968  -75.4241 C.3       11 UNK        -0.0881 
      7 S7        -79.8783   30.0482  -75.4230 S.3       11 UNK        -0.2682 
      8 C8        -78.1155   29.6128  -75.2697 C.3       11 UNK         0.0289 
      9 C9        -77.7057   29.3409  -73.8281 C.ar      11 UNK        -0.0687 
     10 C10       -77.8998   28.0817  -73.2492 C.ar      11 UNK        -0.0823 
     11 C11       -77.5555   27.8527  -71.9124 C.ar      11 UNK        -0.0830 
     12 C12       -76.9750   28.8838  -71.1687 C.ar      11 UNK        -0.1021 
     13 C13       -76.7285   30.1311  -71.7500 C.ar      11 UNK        -0.0753 
     14 C14       -77.1123   30.3570  -73.0745 C.ar      11 UNK        -0.0933 
     15 C15       -76.0346   31.2362  -70.9615 C.3       11 UNK         0.0166 
     16 S16       -74.4693   30.7105  -70.1763 S.3       11 UNK        -0.2615 
     17 C17       -73.5863   29.8636  -71.5341 C.3       11 UNK        -0.0865 
     18 CA        -72.8702   30.8273  -72.5178 C.3       10 UNK         0.0862 
     19 C         -71.4686   31.2523  -71.9817 C.2       10 UNK         0.5551 
     20 N         -70.3689   30.7226  -72.5075 N.am      10 UNK        -0.7319 
     21 O         -71.3774   32.0834  -71.0819 O.2       10 UNK        -0.5018 
     22 N         -72.8544   30.2477  -73.8683 N.am      10 UNK        -0.4509 
     23 C         -72.4914   30.8854  -74.9883 C.2       10 UNK         0.4899 
     24 O         -72.2927   32.0998  -75.0462 O.2       10 UNK        -0.4839 
     25 CA        -72.3097   30.0176  -76.2541 C.3       9 UNK         0.0222 
     26 CB        -71.1894   30.5538  -77.1693 C.3       9 UNK        -0.1966 
     27 N         -72.1067   28.5834  -75.9884 N.am      9 UNK        -0.4218 
     28 C         -71.1425   28.0143  -75.2422 C.2       9 UNK         0.5020 
     29 O         -70.2683   28.6546  -74.6556 O.2       9 UNK        -0.5274 
     30 CA        -71.1817   26.4849  -75.0615 C.3       8 UNK         0.0270 
     31 CB        -71.6003   26.1303  -73.6241 C.3       8 UNK        -0.1976 
     32 N         -72.0860   25.8182  -76.0015 N.am      8 UNK        -0.4313 
     33 C         -71.7737   25.5357  -77.2757 C.2       8 UNK         0.5041 
     34 O         -70.6585   25.7289  -77.7613 O.2       8 UNK        -0.5577 
     35 CA        -72.8892   24.9673  -78.1746 C.3       7 UNK         0.0284 
     36 CB        -72.7450   23.4432  -78.3084 C.3       7 UNK        -0.1958 
     37 N         -74.2433   25.2972  -77.7147 N.am      7 UNK        -0.4454 
     38 C         -74.7365   26.5449  -77.6548 C.2       7 UNK         0.5089 
     39 O         -74.1073   27.5373  -78.0211 O.2       7 UNK        -0.5125 
     40 CA        -76.1289   26.7498  -77.0305 C.3       6 UNK         0.0408 
     41 CB        -77.1842   26.9460  -78.1298 C.3       6 UNK        -0.1791 
     42 N         -76.5629   25.6815  -76.1259 N.am      6 UNK        -0.4762 
     43 C         -75.9149   25.3021  -75.0111 C.2       6 UNK         0.5007 
     44 O         -74.8812   25.8447  -74.6176 O.2       6 UNK        -0.5032 
     45 CA        -76.4550   24.0559  -74.2671 C.3       5 UNK         0.0783 
     46 C46       -77.4113   24.4332  -73.1118 C.3       11 UNK        -0.0857 
     47 S47       -76.5980   25.2482  -71.6975 S.3       11 UNK        -0.2512 
     48 C48       -77.8307   26.5103  -71.2484 C.3       11 UNK         0.0225 
     49 N         -77.1093   23.0941  -75.1644 N.am      5 UNK        -0.4615 
     50 C         -76.5619   22.5425  -76.2576 C.2       4 UNK         0.5053 
     51 O         -75.3857   22.7037  -76.5806 O.2       4 UNK        -0.5105 
     52 CA        -77.4794   21.7257  -77.1861 C.3       4 UNK         0.0263 
     53 CB        -77.2241   20.2218  -76.9994 C.3       4 UNK        -0.1981 
     54 N         -78.9145   21.9913  -77.0330 N.am      4 UNK        -0.4224 
     55 C         -79.5304   23.1765  -77.1640 C.2       3 UNK         0.4895 
     56 O         -78.9463   24.2318  -77.4155 O.2       3 UNK        -0.5091 
     57 CA        -81.0547   23.1986  -76.9358 C.3       3 UNK         0.0250 
     58 CB        -81.7204   21.8061  -77.0219 C.3       3 UNK        -0.1996 
     59 N         -81.4284   23.8505  -75.6745 N.am      3 UNK        -0.4254 
     60 C         -80.9657   23.5887  -74.4430 C.2       2 UNK         0.5004 
     61 O         -80.0585   22.7883  -74.2039 O.2       2 UNK        -0.5226 
     62 CA        -81.6270   24.3702  -73.2894 C.3       2 UNK         0.0269 
     63 CB        -81.1568   23.8926  -71.9022 C.3       2 UNK        -0.1926 
     64 N         -81.3962   25.8128  -73.3950 N.am      2 UNK        -0.4687 
     65 C         -82.0301   26.6498  -74.2290 C.2       1 UNK         0.5165 
     66 O         -82.9039   26.2853  -75.0177 O.2       1 UNK        -0.5079 
     67 H67       -81.3661   29.8745  -70.0133 H         1 UNK         0.0900 
     68 H68       -79.8631   29.5672  -70.8788 H         1 UNK         0.0900 
     69 H69       -80.5943   28.2898  -69.9008 H         1 UNK         0.0900 
     70 H70       -80.0107   28.8193  -72.9922 H         1 UNK         0.2959 
     71 H71       -82.4925   28.7302  -74.3372 H         1 UNK         0.1079 
     72 H72       -81.2366   28.3124  -76.3482 H         1 UNK         0.0837 
     73 H73       -79.8880   27.6306  -75.5008 H         1 UNK         0.0837 
     74 H74       -77.9047   28.7482  -75.8937 H         1 UNK         0.0685 
     75 H75       -77.5191   30.4296  -75.6791 H         1 UNK         0.0685 
     76 H76       -78.3349   27.2865  -73.8350 H         1 UNK         0.1434 
     77 H77       -76.6933   28.7126  -70.1385 H         1 UNK         0.1329 
     78 H78       -76.9406   31.3249  -73.5256 H         1 UNK         0.1335 
     79 H79       -76.7129   31.5962  -70.1871 H         1 UNK         0.0680 
     80 H80       -75.8222   32.0913  -71.6051 H         1 UNK         0.0680 
     81 H81       -74.2984   29.2319  -72.0651 H         1 UNK         0.1032 
     82 H82       -72.8773   29.1581  -71.0960 H         1 UNK         0.1032 
     83 H83       -73.4631   31.7407  -72.5948 H         1 UNK         0.0461 
     84 H84       -70.4217   30.0402  -73.2577 H         1 UNK         0.3453 
     85 H85       -69.4693   31.0094  -72.1567 H         1 UNK         0.3453 
     86 H86       -72.9950   29.2509  -73.9253 H         1 UNK         0.2984 
     87 H87       -73.2490   30.0897  -76.8043 H         1 UNK         0.0554 
     88 H88       -71.0888   29.9469  -78.0691 H         1 UNK         0.0847 
     89 H89       -70.2242   30.5641  -76.6617 H         1 UNK         0.0847 
     90 H90       -71.3980   31.5745  -77.4921 H         1 UNK         0.0847 
     91 H91       -72.7674   27.9726  -76.4562 H         1 UNK         0.3141 
     92 H92       -70.1678   26.1113  -75.2203 H         1 UNK         0.0743 
     93 H93       -72.5936   26.5112  -73.3837 H         1 UNK         0.0784 
     94 H94       -71.6084   25.0516  -73.4672 H         1 UNK         0.0784 
     95 H95       -70.9057   26.5565  -72.8987 H         1 UNK         0.0784 
     96 H96       -73.0296   25.6391  -75.6728 H         1 UNK         0.3213 
     97 H97       -72.7627   25.4085  -79.1657 H         1 UNK         0.0855 
     98 H98       -72.8212   22.9448  -77.3413 H         1 UNK         0.0814 
     99 H99       -71.7754   23.1799  -78.7331 H         1 UNK         0.0814 
    100 H100      -73.5100   23.0252  -78.9630 H         1 UNK         0.0814 
    101 H101      -74.8022   24.5270  -77.3608 H         1 UNK         0.3105 
    102 H102      -76.0621   27.6637  -76.4397 H         1 UNK         0.0547 
    103 H103      -77.2696   26.0633  -78.7648 H         1 UNK         0.0837 
    104 H104      -78.1698   27.1481  -77.7107 H         1 UNK         0.0837 
    105 H105      -76.9265   27.7878  -78.7740 H         1 UNK         0.0837 
    106 H106      -77.3785   25.1511  -76.4189 H         1 UNK         0.3020 
    107 H107      -75.5877   23.5451  -73.8430 H         1 UNK         0.1245 
    108 H108      -78.2385   25.0370  -73.4853 H         1 UNK         0.0781 
    109 H109      -77.8691   23.5269  -72.7118 H         1 UNK         0.0781 
    110 H110      -78.8365   26.1685  -71.4916 H         1 UNK         0.0836 
    111 H111      -77.8172   26.6233  -70.1632 H         1 UNK         0.0836 
    112 H112      -78.0865   22.8996  -74.9706 H         1 UNK         0.3022 
    113 H113      -77.2110   21.9941  -78.2098 H         1 UNK         0.0747 
    114 H114      -77.7832   19.6299  -77.7244 H         1 UNK         0.0793 
    115 H115      -76.1681   19.9841  -77.1373 H         1 UNK         0.0793 
    116 H116      -77.5058   19.8863  -76.0004 H         1 UNK         0.0793 
    117 H117      -79.4876   21.1992  -76.7807 H         1 UNK         0.3047 
    118 H118      -81.4689   23.8122  -77.7374 H         1 UNK         0.0822 
    119 H119      -82.8066   21.8938  -76.9884 H         1 UNK         0.0807 
    120 H120      -81.4231   21.1518  -76.2013 H         1 UNK         0.0807 
    121 H121      -81.4735   21.3047  -77.9590 H         1 UNK         0.0807 
    122 H122      -82.1222   24.5885  -75.7493 H         1 UNK         0.2946 
    123 H123      -82.7016   24.1827  -73.3537 H         1 UNK         0.1144 
    124 H124      -81.6855   24.4132  -71.1035 H         1 UNK         0.0793 
    125 H125      -80.0887   24.0496  -71.7552 H         1 UNK         0.0793 
    126 H126      -81.3481   22.8264  -71.7725 H         1 UNK         0.0793 
    127 H127      -80.7010   26.2069  -72.7807 H         1 UNK         0.2896 
@<TRIPOS>BOND
     1    1    2 1    
     2    1   67 1    
     3    1   68 1    
     4    1   69 1    
     5    2    3 2    
     6    2    4 am   BACKBONE|DICT|INTERRES
     7    4    5 1    
     8    4   70 1    
     9    5    6 1    
    10    5   65 1    
    11    5   71 1    
    12    6    7 1    
    13    6   72 1    
    14    6   73 1    
    15    7    8 1    
    16    8    9 1    
    17    8   74 1    
    18    8   75 1    
    19    9   10 ar   
    20    9   14 ar   
    21   10   11 ar   
    22   10   76 1    
    23   11   12 ar   
    24   11   48 1    
    25   12   13 ar   
    26   12   77 1    
    27   13   14 ar   
    28   13   15 1    
    29   14   78 1    
    30   15   16 1    
    31   15   79 1    
    32   15   80 1    
    33   16   17 1    
    34   17   18 1    
    35   17   81 1    
    36   17   82 1    
    37   18   19 1    
    38   18   22 1    
    39   18   83 1    
    40   19   20 am   BACKBONE|DICT|INTERRES
    41   19   21 2    
    42   20   84 1    
    43   20   85 1    
    44   22   23 am   BACKBONE|DICT|INTERRES
    45   22   86 1    
    46   23   24 2    
    47   23   25 1    
    48   25   26 1    
    49   25   27 1    
    50   25   87 1    
    51   26   88 1    
    52   26   89 1    
    53   26   90 1    
    54   27   28 am   BACKBONE|DICT|INTERRES
    55   27   91 1    
    56   28   29 2    
    57   28   30 1    
    58   30   31 1    
    59   30   32 1    
    60   30   92 1    
    61   31   93 1    
    62   31   94 1    
    63   31   95 1    
    64   32   33 am   BACKBONE|DICT|INTERRES
    65   32   96 1    
    66   33   34 2    
    67   33   35 1    
    68   35   36 1    
    69   35   37 1    
    70   35   97 1    
    71   36   98 1    
    72   36   99 1    
    73   36  100 1    
    74   37   38 am   BACKBONE|DICT|INTERRES
    75   37  101 1    
    76   38   39 2    
    77   38   40 1    
    78   40   41 1    
    79   40   42 1    
    80   40  102 1    
    81   41  103 1    
    82   41  104 1    
    83   41  105 1    
    84   42   43 am   BACKBONE|DICT|INTERRES
    85   42  106 1    
    86   43   44 2    
    87   43   45 1    
    88   45   46 1    
    89   45   49 1    
    90   45  107 1    
    91   46   47 1    
    92   46  108 1    
    93   46  109 1    
    94   47   48 1    
    95   48  110 1    
    96   48  111 1    
    97   49   50 am   BACKBONE|DICT|INTERRES
    98   49  112 1    
    99   50   51 2    
   100   50   52 1    
   101   52   53 1    
   102   52   54 1    
   103   52  113 1    
   104   53  114 1    
   105   53  115 1    
   106   53  116 1    
   107   54   55 am   BACKBONE|DICT|INTERRES
   108   54  117 1    
   109   55   56 2    
   110   55   57 1    
   111   57   58 1    
   112   57   59 1    
   113   57  118 1    
   114   58  119 1    
   115   58  120 1    
   116   58  121 1    
   117   59   60 am   BACKBONE|DICT|INTERRES
   118   59  122 1    
   119   60   61 2    
   120   60   62 1    
   121   62   63 1    
   122   62   64 1    
   123   62  123 1    
   124   63  124 1    
   125   63  125 1    
   126   63  126 1    
   127   64   65 am   BACKBONE|DICT|INTERRES
   128   64  127 1    
   129   65   66 2    
@<TRIPOS>SUBSTRUCTURE
     1 UNK         1 GROUP             0       ****    0 ROOT    
