@<TRIPOS>MOLECULE
3R135
127   129    1
SMALL
USER_CHARGES


@<TRIPOS>ATOM
      1 CA        -81.9254   22.1333  -69.7730 C.3       0 UNK        -0.1998 
      2 C         -82.4566   23.1847  -70.7359 C.2       0 UNK         0.4909 
      3 O         -83.5983   23.0821  -71.1870 O.2       0 UNK        -0.5240 
      4 N         -81.6411   24.1999  -71.0442 N.am      1 UNK        -0.4739 
      5 CA        -81.9383   25.2547  -72.0181 C.3       1 UNK         0.0864 
      6 C6        -81.0432   26.5090  -71.8189 C.3       11 UNK        -0.0881 
      7 S7        -79.2687   26.1540  -71.5365 S.3       11 UNK        -0.2682 
      8 C8        -78.7538   27.5353  -70.4609 C.3       11 UNK         0.0289 
      9 C9        -78.1298   28.6792  -71.2509 C.ar      11 UNK        -0.0687 
     10 C10       -78.8505   29.3160  -72.2641 C.ar      11 UNK        -0.0823 
     11 C11       -78.2744   30.3429  -73.0138 C.ar      11 UNK        -0.0830 
     12 C12       -76.9766   30.7685  -72.7162 C.ar      11 UNK        -0.1021 
     13 C13       -76.2544   30.1639  -71.6828 C.ar      11 UNK        -0.0753 
     14 C14       -76.8316   29.1132  -70.9615 C.ar      11 UNK        -0.0933 
     15 C15       -74.8620   30.6602  -71.3259 C.3       11 UNK         0.0166 
     16 S16       -73.5679   29.5921  -72.0245 S.3       11 UNK        -0.2615 
     17 C17       -72.0682   30.3893  -71.3539 C.3       11 UNK        -0.0865 
     18 CA        -71.1349   30.9455  -72.4612 C.3       10 UNK         0.0862 
     19 C         -70.0081   31.8206  -71.8345 C.2       10 UNK         0.5551 
     20 N         -68.7425   31.4237  -71.8937 N.am      10 UNK        -0.7319 
     21 O         -70.2922   32.8820  -71.2850 O.2       10 UNK        -0.5018 
     22 N         -70.6640   29.8726  -73.3550 N.am      10 UNK        -0.4509 
     23 C         -70.0958   30.0574  -74.5544 C.2       10 UNK         0.4899 
     24 O         -69.9243   31.1621  -75.0703 O.2       10 UNK        -0.4839 
     25 CA        -69.6209   28.7995  -75.3051 C.3       9 UNK         0.0222 
     26 CB        -68.1180   28.5738  -75.0702 C.3       9 UNK        -0.1966 
     27 N         -70.3563   27.5867  -74.9312 N.am      9 UNK        -0.4218 
     28 C         -71.5993   27.3030  -75.3420 C.2       9 UNK         0.5020 
     29 O         -72.2553   28.0262  -76.0944 O.2       9 UNK        -0.5274 
     30 CA        -72.2159   26.0088  -74.7866 C.3       8 UNK         0.0270 
     31 CB        -72.9875   26.2932  -73.4887 C.3       8 UNK        -0.1976 
     32 N         -73.1145   25.3816  -75.7578 N.am      8 UNK        -0.4313 
     33 C         -72.6922   24.6917  -76.8265 C.2       8 UNK         0.5041 
     34 O         -71.5040   24.4752  -77.0724 O.2       8 UNK        -0.5577 
     35 CA        -73.7623   24.1257  -77.7751 C.3       7 UNK         0.0284 
     36 CB        -74.3163   22.7986  -77.2337 C.3       7 UNK        -0.1958 
     37 N         -74.8621   25.0572  -78.0357 N.am      7 UNK        -0.4454 
     38 C         -74.7469   26.1675  -78.7792 C.2       7 UNK         0.5089 
     39 O         -73.6992   26.5302  -79.3149 O.2       7 UNK        -0.5125 
     40 CA        -76.0201   27.0037  -78.9867 C.3       6 UNK         0.0408 
     41 CB        -76.8450   26.4568  -80.1631 C.3       6 UNK        -0.1791 
     42 N         -76.8524   27.0513  -77.7849 N.am      6 UNK        -0.4762 
     43 C         -76.6190   27.8582  -76.7386 C.2       6 UNK         0.5007 
     44 O         -75.6961   28.6716  -76.6998 O.2       6 UNK        -0.5032 
     45 CA        -77.5733   27.7241  -75.5293 C.3       5 UNK         0.0783 
     46 C46       -78.8433   28.6002  -75.7077 C.3       11 UNK        -0.0857 
     47 S47       -78.5026   30.3974  -75.7752 S.3       11 UNK        -0.2512 
     48 C48       -79.0601   30.9857  -74.1455 C.3       11 UNK         0.0225 
     49 N         -77.9254   26.3196  -75.2772 N.am      5 UNK        -0.4615 
     50 C         -77.0458   25.3636  -74.9329 C.2       4 UNK         0.5053 
     51 O         -75.8565   25.5831  -74.7111 O.2       4 UNK        -0.5105 
     52 CA        -77.5334   23.9013  -74.9146 C.3       4 UNK         0.0263 
     53 CB        -77.8383   23.4138  -73.4922 C.3       4 UNK        -0.1981 
     54 N         -78.6791   23.6555  -75.7924 N.am      4 UNK        -0.4224 
     55 C         -78.6235   23.7662  -77.1286 C.2       3 UNK         0.4895 
     56 O         -77.5860   24.0226  -77.7406 O.2       3 UNK        -0.5091 
     57 CA        -79.9333   23.6194  -77.9231 C.3       3 UNK         0.0250 
     58 CB        -80.0241   22.2169  -78.5445 C.3       3 UNK        -0.1996 
     59 N         -81.1548   23.8891  -77.1572 N.am      3 UNK        -0.4254 
     60 C         -81.4505   25.0347  -76.5258 C.2       2 UNK         0.5004 
     61 O         -80.6935   26.0061  -76.4843 O.2       2 UNK        -0.5226 
     62 CA        -82.8012   25.1100  -75.7869 C.3       2 UNK         0.0269 
     63 CB        -83.6942   23.8589  -75.9601 C.3       2 UNK        -0.1926 
     64 N         -82.6305   25.4156  -74.3606 N.am      2 UNK        -0.4687 
     65 C         -81.8984   24.7273  -73.4702 C.2       1 UNK         0.5165 
     66 O         -81.2242   23.7332  -73.7575 O.2       1 UNK        -0.5079 
     67 H67       -82.5623   22.0758  -68.8907 H         1 UNK         0.0900 
     68 H68       -80.9105   22.3574  -69.4449 H         1 UNK         0.0900 
     69 H69       -81.9180   21.1553  -70.2534 H         1 UNK         0.0900 
     70 H70       -80.7022   24.2232  -70.6714 H         1 UNK         0.2959 
     71 H71       -82.9703   25.5661  -71.8382 H         1 UNK         0.1079 
     72 H72       -81.4221   27.0619  -70.9585 H         1 UNK         0.0837 
     73 H73       -81.1395   27.1898  -72.6657 H         1 UNK         0.0837 
     74 H74       -79.5957   27.9093  -69.8776 H         1 UNK         0.0685 
     75 H75       -78.0373   27.1436  -69.7374 H         1 UNK         0.0685 
     76 H76       -79.8584   29.0005  -72.4842 H         1 UNK         0.1434 
     77 H77       -76.5310   31.5702  -73.2896 H         1 UNK         0.1329 
     78 H78       -76.2670   28.6387  -70.1705 H         1 UNK         0.1335 
     79 H79       -74.7172   31.6811  -71.6834 H         1 UNK         0.0680 
     80 H80       -74.7572   30.6942  -70.2402 H         1 UNK         0.0680 
     81 H81       -71.5363   29.6605  -70.7396 H         1 UNK         0.1032 
     82 H82       -72.3668   31.1873  -70.6710 H         1 UNK         0.1032 
     83 H83       -71.7280   31.6278  -73.0736 H         1 UNK         0.0461 
     84 H84       -68.5004   30.5562  -72.3436 H         1 UNK         0.3453 
     85 H85       -68.0235   32.0010  -71.4866 H         1 UNK         0.3453 
     86 H86       -70.7789   28.9306  -73.0148 H         1 UNK         0.2984 
     87 H87       -69.7711   28.9782  -76.3721 H         1 UNK         0.0554 
     88 H88       -67.7450   27.7376  -75.6621 H         1 UNK         0.0847 
     89 H89       -67.8954   28.3696  -74.0222 H         1 UNK         0.0847 
     90 H90       -67.5414   29.4537  -75.3598 H         1 UNK         0.0847 
     91 H91       -69.8835   26.9365  -74.3191 H         1 UNK         0.3141 
     92 H92       -71.4130   25.3044  -74.5581 H         1 UNK         0.0743 
     93 H93       -73.4270   25.3836  -73.0790 H         1 UNK         0.0784 
     94 H94       -72.3330   26.7111  -72.7232 H         1 UNK         0.0784 
     95 H95       -73.7952   27.0081  -73.6531 H         1 UNK         0.0784 
     96 H96       -74.1101   25.5273  -75.6119 H         1 UNK         0.3213 
     97 H97       -73.2777   23.9165  -78.7316 H         1 UNK         0.0855 
     98 H98       -73.5298   22.0444  -77.1857 H         1 UNK         0.0814 
     99 H99       -75.1079   22.4027  -77.8705 H         1 UNK         0.0814 
    100 H100      -74.7141   22.9097  -76.2262 H         1 UNK         0.0814 
    101 H101      -75.7859   24.7913  -77.7069 H         1 UNK         0.3105 
    102 H102      -75.7140   28.0209  -79.2410 H         1 UNK         0.0547 
    103 H103      -76.2539   26.4483  -81.0798 H         1 UNK         0.0837 
    104 H104      -77.1824   25.4352  -79.9864 H         1 UNK         0.0837 
    105 H105      -77.7242   27.0728  -80.3518 H         1 UNK         0.0837 
    106 H106      -77.5997   26.3735  -77.7199 H         1 UNK         0.3020 
    107 H107      -77.0323   28.0812  -74.6491 H         1 UNK         0.1245 
    108 H108      -79.5508   28.4016  -74.9020 H         1 UNK         0.0781 
    109 H109      -79.3662   28.3268  -76.6258 H         1 UNK         0.0781 
    110 H110      -80.1289   30.7934  -74.0388 H         1 UNK         0.0836 
    111 H111      -78.9408   32.0693  -74.1008 H         1 UNK         0.0836 
    112 H112      -78.8825   26.0566  -75.4879 H         1 UNK         0.3022 
    113 H113      -76.7095   23.2926  -75.2862 H         1 UNK         0.0747 
    114 H114      -77.9899   22.3347  -73.4692 H         1 UNK         0.0793 
    115 H115      -77.0161   23.6421  -72.8124 H         1 UNK         0.0793 
    116 H116      -78.7340   23.8805  -73.0906 H         1 UNK         0.0793 
    117 H117      -79.5715   23.4789  -75.3459 H         1 UNK         0.3047 
    118 H118      -79.8933   24.3500  -78.7337 H         1 UNK         0.0822 
    119 H119      -80.8882   22.1282  -79.2032 H         1 UNK         0.0807 
    120 H120      -80.1004   21.4414  -77.7812 H         1 UNK         0.0807 
    121 H121      -79.1394   21.9974  -79.1444 H         1 UNK         0.0807 
    122 H122      -81.8283   23.1383  -77.1090 H         1 UNK         0.2946 
    123 H123      -83.3305   25.9566  -76.2278 H         1 UNK         0.1144 
    124 H124      -83.9068   23.6635  -77.0121 H         1 UNK         0.0793 
    125 H125      -84.6564   23.9982  -75.4668 H         1 UNK         0.0793 
    126 H126      -83.2391   22.9629  -75.5359 H         1 UNK         0.0793 
    127 H127      -83.1185   26.2406  -74.0400 H         1 UNK         0.2896 
@<TRIPOS>BOND
     1    1    2 1    
     2    1   67 1    
     3    1   68 1    
     4    1   69 1    
     5    2    3 2    
     6    2    4 am   BACKBONE|DICT|INTERRES
     7    4    5 1    
     8    4   70 1    
     9    5    6 1    
    10    5   65 1    
    11    5   71 1    
    12    6    7 1    
    13    6   72 1    
    14    6   73 1    
    15    7    8 1    
    16    8    9 1    
    17    8   74 1    
    18    8   75 1    
    19    9   10 ar   
    20    9   14 ar   
    21   10   11 ar   
    22   10   76 1    
    23   11   12 ar   
    24   11   48 1    
    25   12   13 ar   
    26   12   77 1    
    27   13   14 ar   
    28   13   15 1    
    29   14   78 1    
    30   15   16 1    
    31   15   79 1    
    32   15   80 1    
    33   16   17 1    
    34   17   18 1    
    35   17   81 1    
    36   17   82 1    
    37   18   19 1    
    38   18   22 1    
    39   18   83 1    
    40   19   20 am   BACKBONE|DICT|INTERRES
    41   19   21 2    
    42   20   84 1    
    43   20   85 1    
    44   22   23 am   BACKBONE|DICT|INTERRES
    45   22   86 1    
    46   23   24 2    
    47   23   25 1    
    48   25   26 1    
    49   25   27 1    
    50   25   87 1    
    51   26   88 1    
    52   26   89 1    
    53   26   90 1    
    54   27   28 am   BACKBONE|DICT|INTERRES
    55   27   91 1    
    56   28   29 2    
    57   28   30 1    
    58   30   31 1    
    59   30   32 1    
    60   30   92 1    
    61   31   93 1    
    62   31   94 1    
    63   31   95 1    
    64   32   33 am   BACKBONE|DICT|INTERRES
    65   32   96 1    
    66   33   34 2    
    67   33   35 1    
    68   35   36 1    
    69   35   37 1    
    70   35   97 1    
    71   36   98 1    
    72   36   99 1    
    73   36  100 1    
    74   37   38 am   BACKBONE|DICT|INTERRES
    75   37  101 1    
    76   38   39 2    
    77   38   40 1    
    78   40   41 1    
    79   40   42 1    
    80   40  102 1    
    81   41  103 1    
    82   41  104 1    
    83   41  105 1    
    84   42   43 am   BACKBONE|DICT|INTERRES
    85   42  106 1    
    86   43   44 2    
    87   43   45 1    
    88   45   46 1    
    89   45   49 1    
    90   45  107 1    
    91   46   47 1    
    92   46  108 1    
    93   46  109 1    
    94   47   48 1    
    95   48  110 1    
    96   48  111 1    
    97   49   50 am   BACKBONE|DICT|INTERRES
    98   49  112 1    
    99   50   51 2    
   100   50   52 1    
   101   52   53 1    
   102   52   54 1    
   103   52  113 1    
   104   53  114 1    
   105   53  115 1    
   106   53  116 1    
   107   54   55 am   BACKBONE|DICT|INTERRES
   108   54  117 1    
   109   55   56 2    
   110   55   57 1    
   111   57   58 1    
   112   57   59 1    
   113   57  118 1    
   114   58  119 1    
   115   58  120 1    
   116   58  121 1    
   117   59   60 am   BACKBONE|DICT|INTERRES
   118   59  122 1    
   119   60   61 2    
   120   60   62 1    
   121   62   63 1    
   122   62   64 1    
   123   62  123 1    
   124   63  124 1    
   125   63  125 1    
   126   63  126 1    
   127   64   65 am   BACKBONE|DICT|INTERRES
   128   64  127 1    
   129   65   66 2    
@<TRIPOS>SUBSTRUCTURE
     1 UNK         1 GROUP             0       ****    0 ROOT    
