@<TRIPOS>MOLECULE
3R135
127   129    1
SMALL
USER_CHARGES


@<TRIPOS>ATOM
      1 CA        -83.4862   23.0235  -73.9757 C.3       0 UNK        -0.1998 
      2 C         -83.0005   24.4644  -73.9815 C.2       0 UNK         0.4909 
      3 O         -83.0018   25.1099  -75.0301 O.2       0 UNK        -0.5240 
      4 N         -82.5890   24.9782  -72.8150 N.am      1 UNK        -0.4739 
      5 CA        -82.1157   26.3550  -72.6386 C.3       1 UNK         0.0864 
      6 C6        -82.0365   26.7417  -71.1416 C.3       11 UNK        -0.0881 
      7 S7        -82.1794   28.5464  -70.8906 S.3       11 UNK        -0.2682 
      8 C8        -80.8700   28.8846  -69.6708 C.3       11 UNK         0.0289 
      9 C9        -79.4749   28.7188  -70.2557 C.ar      11 UNK        -0.0687 
     10 C10       -78.7415   27.5574  -69.9980 C.ar      11 UNK        -0.0823 
     11 C11       -77.4615   27.3971  -70.5302 C.ar      11 UNK        -0.0830 
     12 C12       -76.9080   28.4170  -71.3070 C.ar      11 UNK        -0.1021 
     13 C13       -77.6259   29.5858  -71.5775 C.ar      11 UNK        -0.0753 
     14 C14       -78.9124   29.7290  -71.0443 C.ar      11 UNK        -0.0933 
     15 C15       -77.0428   30.6740  -72.4772 C.3       11 UNK         0.0166 
     16 S16       -75.3869   31.2375  -71.9549 S.3       11 UNK        -0.2615 
     17 C17       -74.2712   30.0787  -72.8290 C.3       11 UNK        -0.0865 
     18 CA        -73.2263   30.7955  -73.7278 C.3       10 UNK         0.0862 
     19 C         -72.0038   31.3061  -72.9016 C.2       10 UNK         0.5551 
     20 N         -70.8136   30.7330  -73.0445 N.am      10 UNK        -0.7319 
     21 O         -72.1325   32.2501  -72.1266 O.2       10 UNK        -0.5018 
     22 N         -72.8685   29.9571  -74.8838 N.am      10 UNK        -0.4509 
     23 C         -72.2332   30.3964  -75.9789 C.2       10 UNK         0.4899 
     24 O         -72.0110   31.5875  -76.2027 O.2       10 UNK        -0.4839 
     25 CA        -71.7617   29.3289  -76.9909 C.3       9 UNK         0.0222 
     26 CB        -70.5131   29.7795  -77.7777 C.3       9 UNK        -0.1966 
     27 N         -71.5422   27.9938  -76.4137 N.am      9 UNK        -0.4218 
     28 C         -70.7206   27.6606  -75.4028 C.2       9 UNK         0.5020 
     29 O         -70.0342   28.4784  -74.7883 O.2       9 UNK        -0.5274 
     30 CA        -70.6794   26.1847  -74.9632 C.3       8 UNK         0.0270 
     31 CB        -71.1837   26.0417  -73.5158 C.3       8 UNK        -0.1976 
     32 N         -71.4777   25.3159  -75.8321 N.am      8 UNK        -0.4313 
     33 C         -71.0061   24.6720  -76.9101 C.2       8 UNK         0.5041 
     34 O         -69.8209   24.6804  -77.2447 O.2       8 UNK        -0.5577 
     35 CA        -72.0207   23.9018  -77.7806 C.3       7 UNK         0.0284 
     36 CB        -72.0334   22.4131  -77.3979 C.3       7 UNK        -0.1958 
     37 N         -73.3880   24.4273  -77.7113 N.am      7 UNK        -0.4454 
     38 C         -73.7612   25.6590  -78.0862 C.2       7 UNK         0.5089 
     39 O         -72.9969   26.4780  -78.5951 O.2       7 UNK        -0.5125 
     40 CA        -75.2087   26.0793  -77.7766 C.3       6 UNK         0.0408 
     41 CB        -76.1028   25.8575  -79.0054 C.3       6 UNK        -0.1791 
     42 N         -75.8098   25.4210  -76.6089 N.am      6 UNK        -0.4762 
     43 C         -75.3108   25.4064  -75.3624 C.2       6 UNK         0.5007 
     44 O         -74.2146   25.8925  -75.0783 O.2       6 UNK        -0.5032 
     45 CA        -76.1457   24.7431  -74.2423 C.3       5 UNK         0.0783 
     46 C46       -76.2648   25.6852  -73.0246 C.3       11 UNK        -0.0857 
     47 S47       -77.0143   24.8749  -71.5728 S.3       11 UNK        -0.2512 
     48 C48       -76.6809   26.1151  -70.2820 C.3       11 UNK         0.0225 
     49 N         -77.4667   24.2927  -74.6949 N.am      5 UNK        -0.4615 
     50 C         -77.7056   23.1567  -75.3599 C.2       4 UNK         0.5053 
     51 O         -76.8297   22.3548  -75.6829 O.2       4 UNK        -0.5105 
     52 CA        -79.1636   22.8972  -75.7632 C.3       4 UNK         0.0263 
     53 CB        -79.9485   22.2821  -74.5946 C.3       4 UNK        -0.1981 
     54 N         -79.8203   24.1250  -76.2230 N.am      4 UNK        -0.4224 
     55 C         -79.6248   24.6648  -77.4358 C.2       3 UNK         0.4895 
     56 O         -78.9394   24.1383  -78.3119 O.2       3 UNK        -0.5091 
     57 CA        -80.2777   26.0281  -77.7212 C.3       3 UNK         0.0250 
     58 CB        -81.6899   25.8456  -78.2990 C.3       3 UNK        -0.1996 
     59 N         -80.3334   26.8861  -76.5358 N.am      3 UNK        -0.4254 
     60 C         -79.2680   27.5030  -76.0011 C.2       2 UNK         0.5004 
     61 O         -78.1449   27.4738  -76.4989 O.2       2 UNK        -0.5226 
     62 CA        -79.4735   28.2744  -74.6843 C.3       2 UNK         0.0269 
     63 CB        -79.6067   29.7801  -74.9623 C.3       2 UNK        -0.1926 
     64 N         -80.6288   27.8307  -73.9007 N.am      2 UNK        -0.4687 
     65 C         -80.7879   26.6041  -73.3873 C.2       1 UNK         0.5165 
     66 O         -79.9633   25.6947  -73.5227 O.2       1 UNK        -0.5079 
     67 H67       -84.5630   22.9928  -73.8125 H         1 UNK         0.0900 
     68 H68       -83.2765   22.5471  -74.9328 H         1 UNK         0.0900 
     69 H69       -83.0012   22.4407  -73.1927 H         1 UNK         0.0900 
     70 H70       -82.5738   24.3946  -71.9910 H         1 UNK         0.2959 
     71 H71       -82.8760   26.9857  -73.1061 H         1 UNK         0.1079 
     72 H72       -81.1318   26.3439  -70.6816 H         1 UNK         0.0837 
     73 H73       -82.8660   26.2903  -70.5948 H         1 UNK         0.0837 
     74 H74       -80.9878   29.9058  -69.3053 H         1 UNK         0.0685 
     75 H75       -81.0073   28.2357  -68.8042 H         1 UNK         0.0685 
     76 H76       -79.1694   26.7710  -69.3916 H         1 UNK         0.1434 
     77 H77       -75.9189   28.2830  -71.7147 H         1 UNK         0.1329 
     78 H78       -79.4858   30.6227  -71.2494 H         1 UNK         0.1335 
     79 H79       -77.0113   30.3186  -73.5075 H         1 UNK         0.0680 
     80 H80       -77.6998   31.5450  -72.4809 H         1 UNK         0.0680 
     81 H81       -73.7827   29.4308  -72.0984 H         1 UNK         0.1032 
     82 H82       -74.8830   29.4158  -73.4423 H         1 UNK         0.1032 
     83 H83       -73.7030   31.6858  -74.1433 H         1 UNK         0.0461 
     84 H84       -70.6697   29.9647  -73.6929 H         1 UNK         0.3453 
     85 H85       -70.0357   31.0816  -72.5079 H         1 UNK         0.3453 
     86 H86       -73.0006   28.9622  -74.7793 H         1 UNK         0.2984 
     87 H87       -72.5778   29.2149  -77.7058 H         1 UNK         0.0554 
     88 H88       -70.7052   30.7003  -78.3298 H         1 UNK         0.0847 
     89 H89       -70.2107   29.0266  -78.5056 H         1 UNK         0.0847 
     90 H90       -69.6662   29.9669  -77.1167 H         1 UNK         0.0847 
     91 H91       -72.0483   27.2475  -76.8767 H         1 UNK         0.3141 
     92 H92       -69.6345   25.8687  -74.9878 H         1 UNK         0.0743 
     93 H93       -72.2079   26.3985  -73.4035 H         1 UNK         0.0784 
     94 H94       -71.1523   25.0032  -73.1858 H         1 UNK         0.0784 
     95 H95       -70.5634   26.6171  -72.8273 H         1 UNK         0.0784 
     96 H96       -72.4753   25.2895  -75.6335 H         1 UNK         0.3213 
     97 H97       -71.6876   23.9873  -78.8172 H         1 UNK         0.0855 
     98 H98       -72.3836   22.2613  -76.3761 H         1 UNK         0.0814 
     99 H99       -71.0323   21.9844  -77.4660 H         1 UNK         0.0814 
    100 H100      -72.6757   21.8364  -78.0637 H         1 UNK         0.0814 
    101 H101      -74.0888   23.8298  -77.2963 H         1 UNK         0.3105 
    102 H102      -75.1915   27.1495  -77.5612 H         1 UNK         0.0547 
    103 H103      -75.6797   26.3341  -79.8909 H         1 UNK         0.0837 
    104 H104      -76.2257   24.7974  -79.2305 H         1 UNK         0.0837 
    105 H105      -77.0936   26.2855  -78.8544 H         1 UNK         0.0837 
    106 H106      -76.7269   25.0212  -76.7472 H         1 UNK         0.3020 
    107 H107      -75.5748   23.8662  -73.9281 H         1 UNK         0.1245 
    108 H108      -75.2842   26.0590  -72.7232 H         1 UNK         0.0781 
    109 H109      -76.8659   26.5550  -73.2917 H         1 UNK         0.0781 
    110 H110      -75.6105   26.3215  -70.2362 H         1 UNK         0.0836 
    111 H111      -76.9503   25.6961  -69.3113 H         1 UNK         0.0836 
    112 H112      -78.2548   24.8672  -74.4140 H         1 UNK         0.3022 
    113 H113      -79.1582   22.1728  -76.5809 H         1 UNK         0.0747 
    114 H114      -80.9416   21.9700  -74.9133 H         1 UNK         0.0793 
    115 H115      -79.4435   21.3951  -74.2095 H         1 UNK         0.0793 
    116 H116      -80.0595   22.9797  -73.7635 H         1 UNK         0.0793 
    117 H117      -80.3694   24.6356  -75.5430 H         1 UNK         0.3047 
    118 H118      -79.6697   26.5318  -78.4761 H         1 UNK         0.0822 
    119 H119      -82.1411   26.8041  -78.5558 H         1 UNK         0.0807 
    120 H120      -82.3538   25.3383  -77.5987 H         1 UNK         0.0807 
    121 H121      -81.6619   25.2470  -79.2106 H         1 UNK         0.0807 
    122 H122      -81.2224   26.9543  -76.0601 H         1 UNK         0.2946 
    123 H123      -78.5826   28.1125  -74.0741 H         1 UNK         0.1144 
    124 H124      -79.6820   30.3508  -74.0367 H         1 UNK         0.0793 
    125 H125      -80.4872   30.0025  -75.5663 H         1 UNK         0.0793 
    126 H126      -78.7370   30.1553  -75.5037 H         1 UNK         0.0793 
    127 H127      -81.3436   28.5227  -73.7248 H         1 UNK         0.2896 
@<TRIPOS>BOND
     1    1    2 1    
     2    1   67 1    
     3    1   68 1    
     4    1   69 1    
     5    2    3 2    
     6    2    4 am   BACKBONE|DICT|INTERRES
     7    4    5 1    
     8    4   70 1    
     9    5    6 1    
    10    5   65 1    
    11    5   71 1    
    12    6    7 1    
    13    6   72 1    
    14    6   73 1    
    15    7    8 1    
    16    8    9 1    
    17    8   74 1    
    18    8   75 1    
    19    9   10 ar   
    20    9   14 ar   
    21   10   11 ar   
    22   10   76 1    
    23   11   12 ar   
    24   11   48 1    
    25   12   13 ar   
    26   12   77 1    
    27   13   14 ar   
    28   13   15 1    
    29   14   78 1    
    30   15   16 1    
    31   15   79 1    
    32   15   80 1    
    33   16   17 1    
    34   17   18 1    
    35   17   81 1    
    36   17   82 1    
    37   18   19 1    
    38   18   22 1    
    39   18   83 1    
    40   19   20 am   BACKBONE|DICT|INTERRES
    41   19   21 2    
    42   20   84 1    
    43   20   85 1    
    44   22   23 am   BACKBONE|DICT|INTERRES
    45   22   86 1    
    46   23   24 2    
    47   23   25 1    
    48   25   26 1    
    49   25   27 1    
    50   25   87 1    
    51   26   88 1    
    52   26   89 1    
    53   26   90 1    
    54   27   28 am   BACKBONE|DICT|INTERRES
    55   27   91 1    
    56   28   29 2    
    57   28   30 1    
    58   30   31 1    
    59   30   32 1    
    60   30   92 1    
    61   31   93 1    
    62   31   94 1    
    63   31   95 1    
    64   32   33 am   BACKBONE|DICT|INTERRES
    65   32   96 1    
    66   33   34 2    
    67   33   35 1    
    68   35   36 1    
    69   35   37 1    
    70   35   97 1    
    71   36   98 1    
    72   36   99 1    
    73   36  100 1    
    74   37   38 am   BACKBONE|DICT|INTERRES
    75   37  101 1    
    76   38   39 2    
    77   38   40 1    
    78   40   41 1    
    79   40   42 1    
    80   40  102 1    
    81   41  103 1    
    82   41  104 1    
    83   41  105 1    
    84   42   43 am   BACKBONE|DICT|INTERRES
    85   42  106 1    
    86   43   44 2    
    87   43   45 1    
    88   45   46 1    
    89   45   49 1    
    90   45  107 1    
    91   46   47 1    
    92   46  108 1    
    93   46  109 1    
    94   47   48 1    
    95   48  110 1    
    96   48  111 1    
    97   49   50 am   BACKBONE|DICT|INTERRES
    98   49  112 1    
    99   50   51 2    
   100   50   52 1    
   101   52   53 1    
   102   52   54 1    
   103   52  113 1    
   104   53  114 1    
   105   53  115 1    
   106   53  116 1    
   107   54   55 am   BACKBONE|DICT|INTERRES
   108   54  117 1    
   109   55   56 2    
   110   55   57 1    
   111   57   58 1    
   112   57   59 1    
   113   57  118 1    
   114   58  119 1    
   115   58  120 1    
   116   58  121 1    
   117   59   60 am   BACKBONE|DICT|INTERRES
   118   59  122 1    
   119   60   61 2    
   120   60   62 1    
   121   62   63 1    
   122   62   64 1    
   123   62  123 1    
   124   63  124 1    
   125   63  125 1    
   126   63  126 1    
   127   64   65 am   BACKBONE|DICT|INTERRES
   128   64  127 1    
   129   65   66 2    
@<TRIPOS>SUBSTRUCTURE
     1 UNK         1 GROUP             0       ****    0 ROOT    
