@<TRIPOS>MOLECULE
3R135
127   129    1
SMALL
USER_CHARGES


@<TRIPOS>ATOM
      1 CA        -77.7972   23.5600  -79.5677 C.3       0 UNK        -0.1998 
      2 C         -78.4084   22.8505  -78.3687 C.2       0 UNK         0.4909 
      3 O         -79.2102   21.9338  -78.5559 O.2       0 UNK        -0.5240 
      4 N         -78.0302   23.2447  -77.1438 N.am      1 UNK        -0.4739 
      5 CA        -78.5678   22.6779  -75.9002 C.3       1 UNK         0.0864 
      6 C6        -77.6870   23.0039  -74.6652 C.3       11 UNK        -0.0881 
      7 S7        -77.6285   24.7609  -74.1616 S.3       11 UNK        -0.2682 
      8 C8        -77.4337   24.5808  -72.3588 C.3       11 UNK         0.0289 
      9 C9        -76.8990   25.8612  -71.7381 C.ar      11 UNK        -0.0687 
     10 C10       -77.7699   26.9031  -71.4052 C.ar      11 UNK        -0.0823 
     11 C11       -77.2689   28.1220  -70.9337 C.ar      11 UNK        -0.0830 
     12 C12       -75.8970   28.2555  -70.7040 C.ar      11 UNK        -0.1021 
     13 C13       -75.0202   27.2058  -70.9910 C.ar      11 UNK        -0.0753 
     14 C14       -75.5258   26.0157  -71.5220 C.ar      11 UNK        -0.0933 
     15 C15       -73.5299   27.3524  -70.7144 C.3       11 UNK         0.0166 
     16 S16       -72.5809   27.7763  -72.2083 S.3       11 UNK        -0.2615 
     17 C17       -73.0338   29.5267  -72.4621 C.3       11 UNK        -0.0865 
     18 CA        -72.8951   29.9829  -73.9435 C.3       10 UNK         0.0862 
     19 C         -73.4668   31.4138  -74.1886 C.2       10 UNK         0.5551 
     20 N         -72.9739   32.1552  -75.1742 N.am      10 UNK        -0.7319 
     21 O         -74.3740   31.8596  -73.4895 O.2       10 UNK        -0.5018 
     22 N         -71.5448   29.7680  -74.4976 N.am      10 UNK        -0.4509 
     23 C         -70.4074   30.3327  -74.0636 C.2       10 UNK         0.4899 
     24 O         -70.3555   31.1263  -73.1226 O.2       10 UNK        -0.4839 
     25 CA        -69.1092   29.9873  -74.8263 C.3       9 UNK         0.0222 
     26 CB        -67.8549   30.0415  -73.9268 C.3       9 UNK        -0.1966 
     27 N         -69.1780   28.7260  -75.5762 N.am      9 UNK        -0.4218 
     28 C         -69.2931   27.4845  -75.0817 C.2       9 UNK         0.5020 
     29 O         -69.2701   27.1989  -73.8834 O.2       9 UNK        -0.5274 
     30 CA        -69.5089   26.3704  -76.1220 C.3       8 UNK         0.0270 
     31 CB        -68.5587   25.1845  -75.8791 C.3       8 UNK        -0.1976 
     32 N         -70.8937   25.8884  -76.1304 N.am      8 UNK        -0.4313 
     33 C         -71.9773   26.6387  -76.3700 C.2       8 UNK         0.5041 
     34 O         -71.9385   27.8489  -76.6204 O.2       8 UNK        -0.5577 
     35 CA        -73.3305   25.9178  -76.3402 C.3       7 UNK         0.0284 
     36 CB        -73.7289   25.4945  -74.9120 C.3       7 UNK        -0.1958 
     37 N         -74.3328   26.8235  -76.8882 N.am      7 UNK        -0.4454 
     38 C         -75.5529   26.4858  -77.3041 C.2       7 UNK         0.5089 
     39 O         -75.9943   25.3357  -77.2904 O.2       7 UNK        -0.5125 
     40 CA        -76.4607   27.6405  -77.7457 C.3       6 UNK         0.0408 
     41 CB        -77.2902   27.2772  -78.9889 C.3       6 UNK        -0.1791 
     42 N         -77.3634   27.9233  -76.6389 N.am      6 UNK        -0.4762 
     43 C         -77.0897   28.7167  -75.5945 C.2       6 UNK         0.5007 
     44 O         -76.1188   29.4724  -75.5498 O.2       6 UNK        -0.5032 
     45 CA        -78.0268   28.5824  -74.3771 C.3       5 UNK         0.0783 
     46 C46       -78.1444   29.8723  -73.5129 C.3       11 UNK        -0.0857 
     47 S47       -79.2927   29.6796  -72.0967 S.3       11 UNK        -0.2512 
     48 C48       -78.1926   29.3095  -70.6866 C.3       11 UNK         0.0225 
     49 N         -79.3099   27.9498  -74.7162 N.am      5 UNK        -0.4615 
     50 C         -80.3189   28.4856  -75.4171 C.2       4 UNK         0.5053 
     51 O         -80.2938   29.6125  -75.9120 O.2       4 UNK        -0.5105 
     52 CA        -81.5633   27.6021  -75.6205 C.3       4 UNK         0.0263 
     53 CB        -81.6030   27.0618  -77.0598 C.3       4 UNK        -0.1981 
     54 N         -81.6170   26.4787  -74.6767 N.am      4 UNK        -0.4224 
     55 C         -82.0152   26.5886  -73.3980 C.2       3 UNK         0.4895 
     56 O         -82.4485   27.6367  -72.9176 O.2       3 UNK        -0.5091 
     57 CA        -81.8792   25.3472  -72.4875 C.3       3 UNK         0.0250 
     58 CB        -82.9753   25.2833  -71.4021 C.3       3 UNK        -0.1996 
     59 N         -81.7788   24.0749  -73.2128 N.am      3 UNK        -0.4254 
     60 C         -82.6970   23.5163  -74.0166 C.2       2 UNK         0.5004 
     61 O         -83.8283   23.9725  -74.1892 O.2       2 UNK        -0.5226 
     62 CA        -82.2572   22.2458  -74.7769 C.3       2 UNK         0.0269 
     63 CB        -83.0384   22.0577  -76.0953 C.3       2 UNK        -0.1926 
     64 N         -80.8079   22.1596  -75.0354 N.am      2 UNK        -0.4687 
     65 C         -80.0502   23.0556  -75.6897 C.2       1 UNK         0.5165 
     66 O         -80.4689   24.1484  -76.0806 O.2       1 UNK        -0.5079 
     67 H67       -76.8638   24.0590  -79.3146 H         1 UNK         0.0900 
     68 H68       -78.4928   24.3011  -79.9599 H         1 UNK         0.0900 
     69 H69       -77.5828   22.8434  -80.3601 H         1 UNK         0.0900 
     70 H70       -77.3685   24.0116  -77.0417 H         1 UNK         0.2959 
     71 H71       -78.5375   21.5930  -76.0262 H         1 UNK         0.1079 
     72 H72       -76.6622   22.6814  -74.8561 H         1 UNK         0.0837 
     73 H73       -78.0232   22.4055  -73.8165 H         1 UNK         0.0837 
     74 H74       -78.3928   24.3144  -71.9124 H         1 UNK         0.0685 
     75 H75       -76.7519   23.7558  -72.1455 H         1 UNK         0.0685 
     76 H76       -78.8313   26.7920  -71.5769 H         1 UNK         0.1434 
     77 H77       -75.5069   29.1838  -70.3094 H         1 UNK         0.1329 
     78 H78       -74.8469   25.2117  -71.7721 H         1 UNK         0.1335 
     79 H79       -73.1445   26.4142  -70.3126 H         1 UNK         0.0680 
     80 H80       -73.3515   28.1061  -69.9457 H         1 UNK         0.0680 
     81 H81       -72.4267   30.1483  -71.8027 H         1 UNK         0.1032 
     82 H82       -74.0645   29.6649  -72.1387 H         1 UNK         0.1032 
     83 H83       -73.5425   29.3312  -74.5312 H         1 UNK         0.0461 
     84 H84       -73.3475   33.0772  -75.3341 H         1 UNK         0.3453 
     85 H85       -72.2372   31.7972  -75.7603 H         1 UNK         0.3453 
     86 H86       -71.5065   29.1273  -75.2868 H         1 UNK         0.2984 
     87 H87       -68.9976   30.7684  -75.5795 H         1 UNK         0.0554 
     88 H88       -67.7144   31.0400  -73.5111 H         1 UNK         0.0847 
     89 H89       -66.9523   29.7964  -74.4863 H         1 UNK         0.0847 
     90 H90       -67.9281   29.3508  -73.0863 H         1 UNK         0.0847 
     91 H91       -69.2538   28.8310  -76.5793 H         1 UNK         0.3141 
     92 H92       -69.2934   26.7704  -77.1151 H         1 UNK         0.0743 
     93 H93       -68.7553   24.6966  -74.9233 H         1 UNK         0.0784 
     94 H94       -68.6495   24.4340  -76.6646 H         1 UNK         0.0784 
     95 H95       -67.5192   25.5151  -75.8673 H         1 UNK         0.0784 
     96 H96       -71.0252   24.9119  -75.9098 H         1 UNK         0.3213 
     97 H97       -73.2583   25.0356  -76.9799 H         1 UNK         0.0855 
     98 H98       -73.9782   26.3591  -74.2976 H         1 UNK         0.0814 
     99 H99       -72.9286   24.9513  -74.4087 H         1 UNK         0.0814 
    100 H100      -74.6014   24.8413  -74.9229 H         1 UNK         0.0814 
    101 H101      -74.0194   27.7863  -76.9428 H         1 UNK         0.3105 
    102 H102      -75.8545   28.5190  -77.9774 H         1 UNK         0.0547 
    103 H103      -76.6442   26.9860  -79.8180 H         1 UNK         0.0837 
    104 H104      -77.9706   26.4476  -78.7954 H         1 UNK         0.0837 
    105 H105      -77.8882   28.1246  -79.3242 H         1 UNK         0.0837 
    106 H106      -78.1602   27.3091  -76.5532 H         1 UNK         0.3020 
    107 H107      -77.5008   27.8486  -73.7726 H         1 UNK         0.1245 
    108 H108      -78.5024   30.7024  -74.1237 H         1 UNK         0.0781 
    109 H109      -77.1641   30.1744  -73.1387 H         1 UNK         0.0781 
    110 H110      -78.8043   29.1030  -69.8076 H         1 UNK         0.0836 
    111 H111      -77.6171   30.2075  -70.4564 H         1 UNK         0.0836 
    112 H112      -79.4294   27.0075  -74.3743 H         1 UNK         0.3022 
    113 H113      -82.4439   28.2300  -75.4695 H         1 UNK         0.0747 
    114 H114      -81.6650   27.8786  -77.7800 H         1 UNK         0.0793 
    115 H115      -80.7098   26.4847  -77.3017 H         1 UNK         0.0793 
    116 H116      -82.4698   26.4205  -77.2203 H         1 UNK         0.0793 
    117 H117      -81.2875   25.5819  -75.0261 H         1 UNK         0.3047 
    118 H118      -80.9250   25.4682  -71.9734 H         1 UNK         0.0822 
    119 H119      -82.9390   26.1612  -70.7559 H         1 UNK         0.0807 
    120 H120      -82.8515   24.4091  -70.7631 H         1 UNK         0.0807 
    121 H121      -83.9746   25.2435  -71.8364 H         1 UNK         0.0807 
    122 H122      -80.8835   23.6106  -73.1545 H         1 UNK         0.2946 
    123 H123      -82.5074   21.4089  -74.1225 H         1 UNK         0.1144 
    124 H124      -82.7347   21.1463  -76.6104 H         1 UNK         0.0793 
    125 H125      -82.8843   22.8948  -76.7774 H         1 UNK         0.0793 
    126 H126      -84.1108   21.9802  -75.9116 H         1 UNK         0.0793 
    127 H127      -80.3681   21.3052  -74.7201 H         1 UNK         0.2896 
@<TRIPOS>BOND
     1    1    2 1    
     2    1   67 1    
     3    1   68 1    
     4    1   69 1    
     5    2    3 2    
     6    2    4 am   BACKBONE|DICT|INTERRES
     7    4    5 1    
     8    4   70 1    
     9    5    6 1    
    10    5   65 1    
    11    5   71 1    
    12    6    7 1    
    13    6   72 1    
    14    6   73 1    
    15    7    8 1    
    16    8    9 1    
    17    8   74 1    
    18    8   75 1    
    19    9   10 ar   
    20    9   14 ar   
    21   10   11 ar   
    22   10   76 1    
    23   11   12 ar   
    24   11   48 1    
    25   12   13 ar   
    26   12   77 1    
    27   13   14 ar   
    28   13   15 1    
    29   14   78 1    
    30   15   16 1    
    31   15   79 1    
    32   15   80 1    
    33   16   17 1    
    34   17   18 1    
    35   17   81 1    
    36   17   82 1    
    37   18   19 1    
    38   18   22 1    
    39   18   83 1    
    40   19   20 am   BACKBONE|DICT|INTERRES
    41   19   21 2    
    42   20   84 1    
    43   20   85 1    
    44   22   23 am   BACKBONE|DICT|INTERRES
    45   22   86 1    
    46   23   24 2    
    47   23   25 1    
    48   25   26 1    
    49   25   27 1    
    50   25   87 1    
    51   26   88 1    
    52   26   89 1    
    53   26   90 1    
    54   27   28 am   BACKBONE|DICT|INTERRES
    55   27   91 1    
    56   28   29 2    
    57   28   30 1    
    58   30   31 1    
    59   30   32 1    
    60   30   92 1    
    61   31   93 1    
    62   31   94 1    
    63   31   95 1    
    64   32   33 am   BACKBONE|DICT|INTERRES
    65   32   96 1    
    66   33   34 2    
    67   33   35 1    
    68   35   36 1    
    69   35   37 1    
    70   35   97 1    
    71   36   98 1    
    72   36   99 1    
    73   36  100 1    
    74   37   38 am   BACKBONE|DICT|INTERRES
    75   37  101 1    
    76   38   39 2    
    77   38   40 1    
    78   40   41 1    
    79   40   42 1    
    80   40  102 1    
    81   41  103 1    
    82   41  104 1    
    83   41  105 1    
    84   42   43 am   BACKBONE|DICT|INTERRES
    85   42  106 1    
    86   43   44 2    
    87   43   45 1    
    88   45   46 1    
    89   45   49 1    
    90   45  107 1    
    91   46   47 1    
    92   46  108 1    
    93   46  109 1    
    94   47   48 1    
    95   48  110 1    
    96   48  111 1    
    97   49   50 am   BACKBONE|DICT|INTERRES
    98   49  112 1    
    99   50   51 2    
   100   50   52 1    
   101   52   53 1    
   102   52   54 1    
   103   52  113 1    
   104   53  114 1    
   105   53  115 1    
   106   53  116 1    
   107   54   55 am   BACKBONE|DICT|INTERRES
   108   54  117 1    
   109   55   56 2    
   110   55   57 1    
   111   57   58 1    
   112   57   59 1    
   113   57  118 1    
   114   58  119 1    
   115   58  120 1    
   116   58  121 1    
   117   59   60 am   BACKBONE|DICT|INTERRES
   118   59  122 1    
   119   60   61 2    
   120   60   62 1    
   121   62   63 1    
   122   62   64 1    
   123   62  123 1    
   124   63  124 1    
   125   63  125 1    
   126   63  126 1    
   127   64   65 am   BACKBONE|DICT|INTERRES
   128   64  127 1    
   129   65   66 2    
@<TRIPOS>SUBSTRUCTURE
     1 UNK         1 GROUP             0       ****    0 ROOT    
