@<TRIPOS>MOLECULE
3R135
127   129    1
SMALL
USER_CHARGES


@<TRIPOS>ATOM
      1 CA        -80.9448   23.8044  -72.0814 C.3       0 UNK        -0.1998 
      2 C         -81.4280   25.0636  -72.7852 C.2       0 UNK         0.4909 
      3 O         -82.3499   24.9988  -73.6010 O.2       0 UNK        -0.5240 
      4 N         -80.8184   26.2121  -72.4677 N.am      1 UNK        -0.4739 
      5 CA        -81.1730   27.5325  -72.9963 C.3       1 UNK         0.0864 
      6 C6        -80.5963   28.6820  -72.1303 C.3       11 UNK        -0.0881 
      7 S7        -81.0758   28.5364  -70.3710 S.3       11 UNK        -0.2682 
      8 C8        -79.8756   29.6293  -69.5307 C.3       11 UNK         0.0289 
      9 C9        -78.4221   29.3623  -69.9113 C.ar      11 UNK        -0.0687 
     10 C10       -77.9084   28.0619  -69.9365 C.ar      11 UNK        -0.0823 
     11 C11       -76.5980   27.8214  -70.3598 C.ar      11 UNK        -0.0830 
     12 C12       -75.7800   28.9006  -70.7157 C.ar      11 UNK        -0.1021 
     13 C13       -76.2716   30.2096  -70.6655 C.ar      11 UNK        -0.0753 
     14 C14       -77.5920   30.4299  -70.2618 C.ar      11 UNK        -0.0933 
     15 C15       -75.3856   31.3968  -71.0253 C.3       11 UNK         0.0166 
     16 S16       -76.0484   32.3304  -72.4453 S.3       11 UNK        -0.2615 
     17 C17       -74.9260   31.8562  -73.8042 C.3       11 UNK        -0.0865 
     18 CA        -74.9291   30.3467  -74.1764 C.3       10 UNK         0.0862 
     19 C         -76.2800   29.8728  -74.7729 C.2       10 UNK         0.5551 
     20 N         -77.2204   29.4639  -73.9351 N.am      10 UNK        -0.7319 
     21 O         -76.4774   29.8788  -75.9866 O.2       10 UNK        -0.5018 
     22 N         -73.8482   30.0142  -75.1092 N.am      10 UNK        -0.4509 
     23 C         -72.5388   30.0195  -74.8451 C.2       10 UNK         0.4899 
     24 O         -72.0564   30.3476  -73.7601 O.2       10 UNK        -0.4839 
     25 CA        -71.6258   29.5760  -76.0019 C.3       9 UNK         0.0222 
     26 CB        -70.3163   30.3896  -76.0754 C.3       9 UNK        -0.1966 
     27 N         -71.3783   28.1315  -75.9511 N.am      9 UNK        -0.4218 
     28 C         -70.6903   27.4303  -75.0340 C.2       9 UNK         0.5020 
     29 O         -70.0158   27.9362  -74.1363 O.2       9 UNK        -0.5274 
     30 CA        -70.7618   25.8923  -75.1170 C.3       8 UNK         0.0270 
     31 CB        -71.2399   25.2950  -73.7805 C.3       8 UNK        -0.1976 
     32 N         -71.6608   25.4298  -76.1765 N.am      8 UNK        -0.4313 
     33 C         -71.2834   25.0092  -77.3910 C.2       8 UNK         0.5041 
     34 O         -70.1094   24.9388  -77.7557 O.2       8 UNK        -0.5577 
     35 CA        -72.3984   24.6034  -78.3735 C.3       7 UNK         0.0284 
     36 CB        -72.5155   23.0725  -78.4522 C.3       7 UNK        -0.1958 
     37 N         -73.7051   25.1725  -78.0282 N.am      7 UNK        -0.4454 
     38 C         -74.0437   26.4551  -78.2296 C.2       7 UNK         0.5089 
     39 O         -73.2972   27.2823  -78.7525 O.2       7 UNK        -0.5125 
     40 CA        -75.4192   26.9119  -77.7083 C.3       6 UNK         0.0408 
     41 CB        -76.4963   26.7297  -78.7878 C.3       6 UNK        -0.1791 
     42 N         -75.8431   26.2332  -76.4806 N.am      6 UNK        -0.4762 
     43 C         -75.1616   26.2288  -75.3252 C.2       6 UNK         0.5007 
     44 O         -74.1006   26.8272  -75.1621 O.2       6 UNK        -0.5032 
     45 CA        -75.7147   25.3695  -74.1741 C.3       5 UNK         0.0783 
     46 C46       -76.5558   26.2468  -73.2213 C.3       11 UNK        -0.0857 
     47 S47       -76.9900   25.3957  -71.6693 S.3       11 UNK        -0.2512 
     48 C48       -76.0774   26.3909  -70.4403 C.3       11 UNK         0.0225 
     49 N         -76.4621   24.1987  -74.6422 N.am      5 UNK        -0.4615 
     50 C         -76.0077   23.2161  -75.4274 C.2       4 UNK         0.5053 
     51 O         -74.8706   23.1921  -75.8985 O.2       4 UNK        -0.5105 
     52 CA        -76.9920   22.0825  -75.7699 C.3       4 UNK         0.0263 
     53 CB        -77.2324   21.1746  -74.5473 C.3       4 UNK        -0.1981 
     54 N         -78.2649   22.5216  -76.3680 N.am      4 UNK        -0.4224 
     55 C         -79.2253   23.2841  -75.8250 C.2       3 UNK         0.4895 
     56 O         -79.1612   23.7791  -74.6992 O.2       3 UNK        -0.5091 
     57 CA        -80.4909   23.4954  -76.6637 C.3       3 UNK         0.0250 
     58 CB        -81.5701   22.4784  -76.2587 C.3       3 UNK        -0.1996 
     59 N         -81.0111   24.8455  -76.4529 N.am      3 UNK        -0.4254 
     60 C         -80.7061   25.9034  -77.2170 C.2       2 UNK         0.5004 
     61 O         -79.9759   25.8424  -78.2066 O.2       2 UNK        -0.5226 
     62 CA        -81.3273   27.2573  -76.8302 C.3       2 UNK         0.0269 
     63 CB        -82.6145   27.5059  -77.6333 C.3       2 UNK        -0.1926 
     64 N         -81.6283   27.3469  -75.3998 N.am      2 UNK        -0.4687 
     65 C         -80.7173   27.6423  -74.4646 C.2       1 UNK         0.5165 
     66 O         -79.5556   27.9614  -74.7234 O.2       1 UNK        -0.5079 
     67 H67       -79.9464   23.9364  -71.6646 H         1 UNK         0.0900 
     68 H68       -81.6260   23.5393  -71.2737 H         1 UNK         0.0900 
     69 H69       -80.9054   22.9712  -72.7823 H         1 UNK         0.0900 
     70 H70       -80.0463   26.2019  -71.8170 H         1 UNK         0.2959 
     71 H71       -82.2614   27.6232  -72.9708 H         1 UNK         0.1079 
     72 H72       -80.9380   29.6500  -72.5012 H         1 UNK         0.0837 
     73 H73       -79.5090   28.6932  -72.2080 H         1 UNK         0.0837 
     74 H74       -79.9847   29.5085  -68.4523 H         1 UNK         0.0685 
     75 H75       -80.1457   30.6625  -69.7543 H         1 UNK         0.0685 
     76 H76       -78.5422   27.2294  -69.6632 H         1 UNK         0.1434 
     77 H77       -74.7608   28.7213  -71.0306 H         1 UNK         0.1329 
     78 H78       -77.9755   31.4409  -70.2340 H         1 UNK         0.1335 
     79 H79       -75.3334   32.0653  -70.1649 H         1 UNK         0.0680 
     80 H80       -74.3605   31.0809  -71.2260 H         1 UNK         0.0680 
     81 H81       -73.9256   32.1753  -73.5106 H         1 UNK         0.1032 
     82 H82       -75.1763   32.4572  -74.6802 H         1 UNK         0.1032 
     83 H83       -74.7439   29.7562  -73.2788 H         1 UNK         0.0461 
     84 H84       -77.0812   29.5127  -72.9375 H         1 UNK         0.3453 
     85 H85       -78.0887   29.0940  -74.3107 H         1 UNK         0.3453 
     86 H86       -74.1765   29.6997  -76.0130 H         1 UNK         0.2984 
     87 H87       -72.1622   29.7537  -76.9356 H         1 UNK         0.0554 
     88 H88       -70.5297   31.4490  -76.2209 H         1 UNK         0.0847 
     89 H89       -69.6943   30.0657  -76.9097 H         1 UNK         0.0847 
     90 H90       -69.7239   30.3064  -75.1640 H         1 UNK         0.0847 
     91 H91       -71.9021   27.5914  -76.6260 H         1 UNK         0.3141 
     92 H92       -69.7482   25.5323  -75.3051 H         1 UNK         0.0743 
     93 H93       -70.5537   25.5465  -72.9708 H         1 UNK         0.0784 
     94 H94       -72.2245   25.6702  -73.4996 H         1 UNK         0.0784 
     95 H95       -71.2955   24.2073  -73.8287 H         1 UNK         0.0784 
     96 H96       -72.6508   25.5048  -75.9736 H         1 UNK         0.3213 
     97 H97       -72.1127   24.9719  -79.3615 H         1 UNK         0.0855 
     98 H98       -72.7702   22.6356  -77.4861 H         1 UNK         0.0814 
     99 H99       -71.5724   22.6264  -78.7707 H         1 UNK         0.0814 
    100 H100      -73.2762   22.7674  -79.1709 H         1 UNK         0.0814 
    101 H101      -74.3503   24.5641  -77.5369 H         1 UNK         0.3105 
    102 H102      -75.3411   27.9765  -77.4834 H         1 UNK         0.0547 
    103 H103      -76.6594   25.6780  -79.0262 H         1 UNK         0.0837 
    104 H104      -77.4495   27.1532  -78.4702 H         1 UNK         0.0837 
    105 H105      -76.2127   27.2346  -79.7123 H         1 UNK         0.0837 
    106 H106      -76.7096   25.7163  -76.5205 H         1 UNK         0.3020 
    107 H107      -74.8482   24.9963  -73.6240 H         1 UNK         0.1245 
    108 H108      -77.4813   26.5612  -73.7065 H         1 UNK         0.0781 
    109 H109      -76.0142   27.1619  -72.9798 H         1 UNK         0.0781 
    110 H110      -75.0138   26.3731  -70.6834 H         1 UNK         0.0836 
    111 H111      -76.1759   25.9204  -69.4611 H         1 UNK         0.0836 
    112 H112      -77.4387   24.1425  -74.3560 H         1 UNK         0.3022 
    113 H113      -76.5048   21.4727  -76.5327 H         1 UNK         0.0747 
    114 H114      -77.8490   20.3147  -74.8088 H         1 UNK         0.0793 
    115 H115      -76.2892   20.7899  -74.1570 H         1 UNK         0.0793 
    116 H116      -77.7270   21.7041  -73.7323 H         1 UNK         0.0793 
    117 H117      -78.4208   22.1842  -77.3083 H         1 UNK         0.3047 
    118 H118      -80.2543   23.3481  -77.7199 H         1 UNK         0.0822 
    119 H119      -82.4741   22.6022  -76.8552 H         1 UNK         0.0807 
    120 H120      -81.8470   22.5801  -75.2083 H         1 UNK         0.0807 
    121 H121      -81.2213   21.4555  -76.4070 H         1 UNK         0.0807 
    122 H122      -81.5470   24.9911  -75.6045 H         1 UNK         0.2946 
    123 H123      -80.6053   28.0344  -77.0935 H         1 UNK         0.1144 
    124 H124      -83.0326   28.4894  -77.4177 H         1 UNK         0.0793 
    125 H125      -83.3791   26.7595  -77.4144 H         1 UNK         0.0793 
    126 H126      -82.4181   27.4668  -78.7057 H         1 UNK         0.0793 
    127 H127      -82.5473   27.0461  -75.1045 H         1 UNK         0.2896 
@<TRIPOS>BOND
     1    1    2 1    
     2    1   67 1    
     3    1   68 1    
     4    1   69 1    
     5    2    3 2    
     6    2    4 am   BACKBONE|DICT|INTERRES
     7    4    5 1    
     8    4   70 1    
     9    5    6 1    
    10    5   65 1    
    11    5   71 1    
    12    6    7 1    
    13    6   72 1    
    14    6   73 1    
    15    7    8 1    
    16    8    9 1    
    17    8   74 1    
    18    8   75 1    
    19    9   10 ar   
    20    9   14 ar   
    21   10   11 ar   
    22   10   76 1    
    23   11   12 ar   
    24   11   48 1    
    25   12   13 ar   
    26   12   77 1    
    27   13   14 ar   
    28   13   15 1    
    29   14   78 1    
    30   15   16 1    
    31   15   79 1    
    32   15   80 1    
    33   16   17 1    
    34   17   18 1    
    35   17   81 1    
    36   17   82 1    
    37   18   19 1    
    38   18   22 1    
    39   18   83 1    
    40   19   20 am   BACKBONE|DICT|INTERRES
    41   19   21 2    
    42   20   84 1    
    43   20   85 1    
    44   22   23 am   BACKBONE|DICT|INTERRES
    45   22   86 1    
    46   23   24 2    
    47   23   25 1    
    48   25   26 1    
    49   25   27 1    
    50   25   87 1    
    51   26   88 1    
    52   26   89 1    
    53   26   90 1    
    54   27   28 am   BACKBONE|DICT|INTERRES
    55   27   91 1    
    56   28   29 2    
    57   28   30 1    
    58   30   31 1    
    59   30   32 1    
    60   30   92 1    
    61   31   93 1    
    62   31   94 1    
    63   31   95 1    
    64   32   33 am   BACKBONE|DICT|INTERRES
    65   32   96 1    
    66   33   34 2    
    67   33   35 1    
    68   35   36 1    
    69   35   37 1    
    70   35   97 1    
    71   36   98 1    
    72   36   99 1    
    73   36  100 1    
    74   37   38 am   BACKBONE|DICT|INTERRES
    75   37  101 1    
    76   38   39 2    
    77   38   40 1    
    78   40   41 1    
    79   40   42 1    
    80   40  102 1    
    81   41  103 1    
    82   41  104 1    
    83   41  105 1    
    84   42   43 am   BACKBONE|DICT|INTERRES
    85   42  106 1    
    86   43   44 2    
    87   43   45 1    
    88   45   46 1    
    89   45   49 1    
    90   45  107 1    
    91   46   47 1    
    92   46  108 1    
    93   46  109 1    
    94   47   48 1    
    95   48  110 1    
    96   48  111 1    
    97   49   50 am   BACKBONE|DICT|INTERRES
    98   49  112 1    
    99   50   51 2    
   100   50   52 1    
   101   52   53 1    
   102   52   54 1    
   103   52  113 1    
   104   53  114 1    
   105   53  115 1    
   106   53  116 1    
   107   54   55 am   BACKBONE|DICT|INTERRES
   108   54  117 1    
   109   55   56 2    
   110   55   57 1    
   111   57   58 1    
   112   57   59 1    
   113   57  118 1    
   114   58  119 1    
   115   58  120 1    
   116   58  121 1    
   117   59   60 am   BACKBONE|DICT|INTERRES
   118   59  122 1    
   119   60   61 2    
   120   60   62 1    
   121   62   63 1    
   122   62   64 1    
   123   62  123 1    
   124   63  124 1    
   125   63  125 1    
   126   63  126 1    
   127   64   65 am   BACKBONE|DICT|INTERRES
   128   64  127 1    
   129   65   66 2    
@<TRIPOS>SUBSTRUCTURE
     1 UNK         1 GROUP             0       ****    0 ROOT    
