@<TRIPOS>MOLECULE
3R135
127   129    1
SMALL
USER_CHARGES


@<TRIPOS>ATOM
      1 CA        -77.1786   22.7781  -69.1593 C.3       0 UNK        -0.1998 
      2 C         -78.3101   22.8690  -70.1719 C.2       0 UNK         0.4909 
      3 O         -79.1001   21.9329  -70.2952 O.2       0 UNK        -0.5240 
      4 N         -78.3909   23.9897  -70.9007 N.am      1 UNK        -0.4739 
      5 CA        -79.4185   24.2581  -71.9184 C.3       1 UNK         0.0864 
      6 C6        -79.5526   25.7737  -72.2136 C.3       11 UNK        -0.0881 
      7 S7        -80.0484   26.7320  -70.7436 S.3       11 UNK        -0.2682 
      8 C8        -78.5262   27.6658  -70.3568 C.3       11 UNK         0.0289 
      9 C9        -78.2200   28.8146  -71.3179 C.ar      11 UNK        -0.0687 
     10 C10       -79.2381   29.6294  -71.8307 C.ar      11 UNK        -0.0823 
     11 C11       -78.9350   30.7074  -72.6679 C.ar      11 UNK        -0.0830 
     12 C12       -77.6021   30.9879  -72.9722 C.ar      11 UNK        -0.1021 
     13 C13       -76.5763   30.1813  -72.4771 C.ar      11 UNK        -0.0753 
     14 C14       -76.8897   29.0976  -71.6511 C.ar      11 UNK        -0.0933 
     15 C15       -75.1344   30.5053  -72.8319 C.3       11 UNK         0.0166 
     16 S16       -74.7950   30.1462  -74.5816 S.3       11 UNK        -0.2615 
     17 C17       -73.2164   31.0340  -74.8106 C.3       11 UNK        -0.0865 
     18 CA        -72.1505   30.1820  -75.5558 C.3       10 UNK         0.0862 
     19 C         -70.9014   31.0132  -75.9842 C.2       10 UNK         0.5551 
     20 N         -69.7189   30.4182  -76.0882 N.am      10 UNK        -0.7319 
     21 O         -71.0049   32.2068  -76.2583 O.2       10 UNK        -0.5018 
     22 N         -71.8443   28.9104  -74.8726 N.am      10 UNK        -0.4509 
     23 C         -71.2433   28.7778  -73.6809 C.2       10 UNK         0.4899 
     24 O         -70.8806   29.7280  -72.9850 O.2       10 UNK        -0.4839 
     25 CA        -70.9822   27.3340  -73.2055 C.3       9 UNK         0.0222 
     26 CB        -70.4878   27.2555  -71.7447 C.3       9 UNK        -0.1966 
     27 N         -72.1282   26.4442  -73.4220 N.am      9 UNK        -0.4218 
     28 C         -73.3561   26.5385  -72.8945 C.2       9 UNK         0.5020 
     29 O         -73.6802   27.3980  -72.0741 O.2       9 UNK        -0.5274 
     30 CA        -74.3923   25.4826  -73.3471 C.3       8 UNK         0.0270 
     31 CB        -75.8057   25.8199  -72.8442 C.3       8 UNK        -0.1976 
     32 N         -74.4687   25.2954  -74.7998 N.am      8 UNK        -0.4313 
     33 C         -73.5357   24.7745  -75.6067 C.2       8 UNK         0.5041 
     34 O         -72.4595   24.3302  -75.2034 O.2       8 UNK        -0.5577 
     35 CA        -73.8190   24.7913  -77.1184 C.3       7 UNK         0.0284 
     36 CB        -74.1227   23.3802  -77.6491 C.3       7 UNK        -0.1958 
     37 N         -74.8876   25.7228  -77.5060 N.am      7 UNK        -0.4454 
     38 C         -74.7255   27.0536  -77.5532 C.2       7 UNK         0.5089 
     39 O         -73.6934   27.6185  -77.1921 O.2       7 UNK        -0.5125 
     40 CA        -75.8748   27.8915  -78.1292 C.3       6 UNK         0.0408 
     41 CB        -76.4995   27.2632  -79.3899 C.3       6 UNK        -0.1791 
     42 N         -76.9085   28.1498  -77.1265 N.am      6 UNK        -0.4762 
     43 C         -77.6159   29.2862  -77.0385 C.2       6 UNK         0.5007 
     44 O         -77.4371   30.2518  -77.7843 O.2       6 UNK        -0.5032 
     45 CA        -78.7467   29.3355  -75.9837 C.3       5 UNK         0.0783 
     46 C46       -79.4387   30.7256  -75.9073 C.3       11 UNK        -0.0857 
     47 S47       -80.8134   30.7771  -74.7003 S.3       11 UNK        -0.2512 
     48 C48       -80.0436   31.5682  -73.2524 C.3       11 UNK         0.0225 
     49 N         -79.7236   28.2729  -76.2334 N.am      5 UNK        -0.4615 
     50 C         -79.5867   27.0020  -75.8500 C.2       4 UNK         0.5053 
     51 O         -78.5839   26.5842  -75.2697 O.2       4 UNK        -0.5105 
     52 CA        -80.7539   26.0389  -76.1418 C.3       4 UNK         0.0263 
     53 CB        -81.8723   26.6231  -77.0370 C.3       4 UNK        -0.1981 
     54 N         -80.2526   24.7655  -76.6620 N.am      4 UNK        -0.4224 
     55 C         -79.6038   24.5645  -77.8204 C.2       3 UNK         0.4895 
     56 O         -79.4791   25.4220  -78.6959 O.2       3 UNK        -0.5091 
     57 CA        -78.9877   23.1642  -78.0338 C.3       3 UNK         0.0250 
     58 CB        -77.8225   23.1710  -79.0476 C.3       3 UNK        -0.1996 
     59 N         -78.5844   22.5093  -76.7812 N.am      3 UNK        -0.4254 
     60 C         -77.6972   22.9670  -75.8850 C.2       2 UNK         0.5004 
     61 O         -77.0274   23.9917  -76.0260 O.2       2 UNK        -0.5226 
     62 CA        -77.5581   22.1471  -74.5920 C.3       2 UNK         0.0269 
     63 CB        -76.1031   21.6912  -74.3895 C.3       2 UNK        -0.1926 
     64 N         -77.9902   22.9061  -73.4164 N.am      2 UNK        -0.4687 
     65 C         -79.2000   23.4566  -73.2239 C.2       1 UNK         0.5165 
     66 O         -80.1328   23.3421  -74.0223 O.2       1 UNK        -0.5079 
     67 H67       -76.5552   23.6720  -69.1614 H         1 UNK         0.0900 
     68 H68       -77.5835   22.6501  -68.1558 H         1 UNK         0.0900 
     69 H69       -76.5434   21.9212  -69.3824 H         1 UNK         0.0900 
     70 H70       -77.7318   24.7357  -70.7377 H         1 UNK         0.2959 
     71 H71       -80.3759   23.9163  -71.5181 H         1 UNK         0.1079 
     72 H72       -80.3165   25.9457  -72.9725 H         1 UNK         0.0837 
     73 H73       -78.6277   26.1799  -72.6241 H         1 UNK         0.0837 
     74 H74       -77.6886   26.9688  -70.3123 H         1 UNK         0.0685 
     75 H75       -78.6286   28.0837  -69.3547 H         1 UNK         0.0685 
     76 H76       -80.2705   29.4264  -71.5820 H         1 UNK         0.1434 
     77 H77       -77.3580   31.8246  -73.6126 H         1 UNK         0.1329 
     78 H78       -76.0915   28.4821  -71.2582 H         1 UNK         0.1335 
     79 H79       -74.4378   29.9463  -72.2059 H         1 UNK         0.0680 
     80 H80       -74.9517   31.5625  -72.6338 H         1 UNK         0.0680 
     81 H81       -73.4427   31.9423  -75.3717 H         1 UNK         0.1032 
     82 H82       -72.8260   31.3672  -73.8480 H         1 UNK         0.1032 
     83 H83       -72.5980   29.8921  -76.5059 H         1 UNK         0.0461 
     84 H84       -69.6223   29.4373  -75.8815 H         1 UNK         0.3453 
     85 H85       -68.9171   30.9571  -76.3753 H         1 UNK         0.3453 
     86 H86       -72.1340   28.0813  -75.3733 H         1 UNK         0.2984 
     87 H87       -70.1819   26.9495  -73.8393 H         1 UNK         0.0554 
     88 H88       -71.2141   27.6742  -71.0474 H         1 UNK         0.0847 
     89 H89       -69.5586   27.8120  -71.6165 H         1 UNK         0.0847 
     90 H90       -70.2910   26.2259  -71.4463 H         1 UNK         0.0847 
     91 H91       -71.9881   25.6811  -74.0844 H         1 UNK         0.3141 
     92 H92       -74.0924   24.5310  -72.9045 H         1 UNK         0.0743 
     93 H93       -75.8418   25.8536  -71.7552 H         1 UNK         0.0784 
     94 H94       -76.1402   26.7884  -73.2190 H         1 UNK         0.0784 
     95 H95       -76.5266   25.0789  -73.1777 H         1 UNK         0.0784 
     96 H96       -75.3377   25.5720  -75.2373 H         1 UNK         0.3213 
     97 H97       -72.8980   25.1247  -77.6022 H         1 UNK         0.0855 
     98 H98       -75.0047   22.9445  -77.1841 H         1 UNK         0.0814 
     99 H99       -73.2899   22.7052  -77.4474 H         1 UNK         0.0814 
    100 H100      -74.2786   23.3854  -78.7279 H         1 UNK         0.0814 
    101 H101      -75.7852   25.3183  -77.7352 H         1 UNK         0.3105 
    102 H102      -75.4238   28.8404  -78.4279 H         1 UNK         0.0547 
    103 H103      -75.7340   27.0148  -80.1262 H         1 UNK         0.0837 
    104 H104      -77.0485   26.3499  -79.1643 H         1 UNK         0.0837 
    105 H105      -77.1947   27.9529  -79.8684 H         1 UNK         0.0837 
    106 H106      -77.1362   27.3962  -76.4839 H         1 UNK         0.3020 
    107 H107      -78.2729   29.1498  -75.0169 H         1 UNK         0.1245 
    108 H108      -79.8522   30.9970  -76.8805 H         1 UNK         0.0781 
    109 H109      -78.7134   31.5037  -75.6644 H         1 UNK         0.0781 
    110 H110      -80.8094   31.7417  -72.4949 H         1 UNK         0.0836 
    111 H111      -79.6657   32.5528  -73.5328 H         1 UNK         0.0836 
    112 H112      -80.5633   28.5475  -76.7205 H         1 UNK         0.3022 
    113 H113      -81.2024   25.8080  -75.1754 H         1 UNK         0.0747 
    114 H114      -82.6483   25.8811  -77.2249 H         1 UNK         0.0793 
    115 H115      -82.3586   27.4729  -76.5564 H         1 UNK         0.0793 
    116 H116      -81.4977   26.9584  -78.0047 H         1 UNK         0.0793 
    117 H117      -80.2343   24.0164  -75.9775 H         1 UNK         0.3047 
    118 H118      -79.7853   22.5508  -78.4555 H         1 UNK         0.0822 
    119 H119      -77.0087   23.8190  -78.7250 H         1 UNK         0.0807 
    120 H120      -78.1535   23.5283  -80.0235 H         1 UNK         0.0807 
    121 H121      -77.4160   22.1702  -79.1919 H         1 UNK         0.0807 
    122 H122      -79.0931   21.6651  -76.5564 H         1 UNK         0.2946 
    123 H123      -78.1886   21.2583  -74.6617 H         1 UNK         0.1144 
    124 H124      -75.7501   21.1195  -75.2488 H         1 UNK         0.0793 
    125 H125      -76.0049   21.0510  -73.5127 H         1 UNK         0.0793 
    126 H126      -75.4279   22.5383  -74.2640 H         1 UNK         0.0793 
    127 H127      -77.2973   23.0503  -72.6981 H         1 UNK         0.2896 
@<TRIPOS>BOND
     1    1    2 1    
     2    1   67 1    
     3    1   68 1    
     4    1   69 1    
     5    2    3 2    
     6    2    4 am   BACKBONE|DICT|INTERRES
     7    4    5 1    
     8    4   70 1    
     9    5    6 1    
    10    5   65 1    
    11    5   71 1    
    12    6    7 1    
    13    6   72 1    
    14    6   73 1    
    15    7    8 1    
    16    8    9 1    
    17    8   74 1    
    18    8   75 1    
    19    9   10 ar   
    20    9   14 ar   
    21   10   11 ar   
    22   10   76 1    
    23   11   12 ar   
    24   11   48 1    
    25   12   13 ar   
    26   12   77 1    
    27   13   14 ar   
    28   13   15 1    
    29   14   78 1    
    30   15   16 1    
    31   15   79 1    
    32   15   80 1    
    33   16   17 1    
    34   17   18 1    
    35   17   81 1    
    36   17   82 1    
    37   18   19 1    
    38   18   22 1    
    39   18   83 1    
    40   19   20 am   BACKBONE|DICT|INTERRES
    41   19   21 2    
    42   20   84 1    
    43   20   85 1    
    44   22   23 am   BACKBONE|DICT|INTERRES
    45   22   86 1    
    46   23   24 2    
    47   23   25 1    
    48   25   26 1    
    49   25   27 1    
    50   25   87 1    
    51   26   88 1    
    52   26   89 1    
    53   26   90 1    
    54   27   28 am   BACKBONE|DICT|INTERRES
    55   27   91 1    
    56   28   29 2    
    57   28   30 1    
    58   30   31 1    
    59   30   32 1    
    60   30   92 1    
    61   31   93 1    
    62   31   94 1    
    63   31   95 1    
    64   32   33 am   BACKBONE|DICT|INTERRES
    65   32   96 1    
    66   33   34 2    
    67   33   35 1    
    68   35   36 1    
    69   35   37 1    
    70   35   97 1    
    71   36   98 1    
    72   36   99 1    
    73   36  100 1    
    74   37   38 am   BACKBONE|DICT|INTERRES
    75   37  101 1    
    76   38   39 2    
    77   38   40 1    
    78   40   41 1    
    79   40   42 1    
    80   40  102 1    
    81   41  103 1    
    82   41  104 1    
    83   41  105 1    
    84   42   43 am   BACKBONE|DICT|INTERRES
    85   42  106 1    
    86   43   44 2    
    87   43   45 1    
    88   45   46 1    
    89   45   49 1    
    90   45  107 1    
    91   46   47 1    
    92   46  108 1    
    93   46  109 1    
    94   47   48 1    
    95   48  110 1    
    96   48  111 1    
    97   49   50 am   BACKBONE|DICT|INTERRES
    98   49  112 1    
    99   50   51 2    
   100   50   52 1    
   101   52   53 1    
   102   52   54 1    
   103   52  113 1    
   104   53  114 1    
   105   53  115 1    
   106   53  116 1    
   107   54   55 am   BACKBONE|DICT|INTERRES
   108   54  117 1    
   109   55   56 2    
   110   55   57 1    
   111   57   58 1    
   112   57   59 1    
   113   57  118 1    
   114   58  119 1    
   115   58  120 1    
   116   58  121 1    
   117   59   60 am   BACKBONE|DICT|INTERRES
   118   59  122 1    
   119   60   61 2    
   120   60   62 1    
   121   62   63 1    
   122   62   64 1    
   123   62  123 1    
   124   63  124 1    
   125   63  125 1    
   126   63  126 1    
   127   64   65 am   BACKBONE|DICT|INTERRES
   128   64  127 1    
   129   65   66 2    
@<TRIPOS>SUBSTRUCTURE
     1 UNK         1 GROUP             0       ****    0 ROOT    
