@<TRIPOS>MOLECULE
3R135
127   129    1
SMALL
USER_CHARGES


@<TRIPOS>ATOM
      1 CA        -84.0609   28.0574  -71.3652 C.3       0 UNK        -0.1998 
      2 C         -83.6069   28.0429  -72.8174 C.2       0 UNK         0.4909 
      3 O         -84.4228   27.8189  -73.7119 O.2       0 UNK        -0.5240 
      4 N         -82.3108   28.2846  -73.0558 N.am      1 UNK        -0.4739 
      5 CA        -81.6871   28.2902  -74.3864 C.3       1 UNK         0.0864 
      6 C6        -80.2902   28.9586  -74.3644 C.3       11 UNK        -0.0881 
      7 S7        -80.3528   30.7443  -73.9683 S.3       11 UNK        -0.2682 
      8 C8        -80.1106   30.8181  -72.1585 C.3       11 UNK         0.0289 
      9 C9        -78.7611   30.2656  -71.7225 C.ar      11 UNK        -0.0687 
     10 C10       -78.6672   28.9590  -71.2338 C.ar      11 UNK        -0.0823 
     11 C11       -77.4244   28.4123  -70.9047 C.ar      11 UNK        -0.0830 
     12 C12       -76.2815   29.2082  -70.9915 C.ar      11 UNK        -0.1021 
     13 C13       -76.3626   30.5242  -71.4510 C.ar      11 UNK        -0.0753 
     14 C14       -77.6054   31.0491  -71.8219 C.ar      11 UNK        -0.0933 
     15 C15       -75.0932   31.3524  -71.5633 C.3       11 UNK         0.0166 
     16 S16       -74.1107   30.8340  -73.0070 S.3       11 UNK        -0.2615 
     17 C17       -72.4061   30.8805  -72.3415 C.3       11 UNK        -0.0865 
     18 CA        -71.8145   29.4795  -72.0166 C.3       10 UNK         0.0862 
     19 C         -72.3525   28.8853  -70.6806 C.2       10 UNK         0.5551 
     20 N         -72.8532   27.6558  -70.6496 N.am      10 UNK        -0.7319 
     21 O         -72.2998   29.5492  -69.6484 O.2       10 UNK        -0.5018 
     22 N         -71.8976   28.5889  -73.1839 N.am      10 UNK        -0.4509 
     23 C         -71.1012   27.5440  -73.4433 C.2       10 UNK         0.4899 
     24 O         -70.1961   27.1685  -72.6984 O.2       10 UNK        -0.4839 
     25 CA        -71.3484   26.7946  -74.7678 C.3       9 UNK         0.0222 
     26 CB        -72.1451   25.5050  -74.5174 C.3       9 UNK        -0.1966 
     27 N         -72.0399   27.6159  -75.7700 N.am      9 UNK        -0.4218 
     28 C         -71.4682   28.6523  -76.4039 C.2       9 UNK         0.5020 
     29 O         -70.2876   28.9752  -76.2530 O.2       9 UNK        -0.5274 
     30 CA        -72.3737   29.4679  -77.3458 C.3       8 UNK         0.0270 
     31 CB        -71.6310   30.6262  -78.0468 C.3       8 UNK        -0.1976 
     32 N         -73.0725   28.6352  -78.3295 N.am      8 UNK        -0.4313 
     33 C         -72.5387   27.8116  -79.2476 C.2       8 UNK         0.5041 
     34 O         -71.3289   27.6327  -79.4003 O.2       8 UNK        -0.5577 
     35 CA        -73.5429   27.0864  -80.1687 C.3       7 UNK         0.0284 
     36 CB        -72.9733   25.7923  -80.7915 C.3       7 UNK        -0.1958 
     37 N         -74.8404   26.8542  -79.5160 N.am      7 UNK        -0.4454 
     38 C         -75.0857   26.0574  -78.4651 C.2       7 UNK         0.5089 
     39 O         -74.2681   25.2739  -77.9774 O.2       7 UNK        -0.5125 
     40 CA        -76.5011   26.1847  -77.8720 C.3       6 UNK         0.0408 
     41 CB        -77.5084   25.3771  -78.7070 C.3       6 UNK        -0.1791 
     42 N         -76.6101   25.7648  -76.4738 N.am      6 UNK        -0.4762 
     43 C         -75.8923   26.2048  -75.4278 C.2       6 UNK         0.5007 
     44 O         -75.0007   27.0548  -75.5030 O.2       6 UNK        -0.5032 
     45 CA        -76.2692   25.6074  -74.0556 C.3       5 UNK         0.0783 
     46 C46       -77.3439   26.4962  -73.3873 C.3       11 UNK        -0.0857 
     47 S47       -77.9973   25.8317  -71.8093 S.3       11 UNK        -0.2512 
     48 C48       -77.2941   26.9403  -70.5378 C.3       11 UNK         0.0225 
     49 N         -76.7267   24.2238  -74.2021 N.am      5 UNK        -0.4615 
     50 C         -75.9404   23.1419  -74.1675 C.2       4 UNK         0.5053 
     51 O         -74.7247   23.1870  -73.9807 O.2       4 UNK        -0.5105 
     52 CA        -76.6226   21.7719  -74.3500 C.3       4 UNK         0.0263 
     53 CB        -76.8875   21.1237  -72.9812 C.3       4 UNK        -0.1981 
     54 N         -77.8840   21.8515  -75.0923 N.am      4 UNK        -0.4224 
     55 C         -77.9755   22.0478  -76.4153 C.2       3 UNK         0.4895 
     56 O         -77.0040   22.0752  -77.1700 O.2       3 UNK        -0.5091 
     57 CA        -79.3845   22.2766  -76.9983 C.3       3 UNK         0.0250 
     58 CB        -79.9491   20.9630  -77.5630 C.3       3 UNK        -0.1996 
     59 N         -80.3541   22.8559  -76.0575 N.am      3 UNK        -0.4254 
     60 C         -80.2231   24.0403  -75.4431 C.2       2 UNK         0.5004 
     61 O         -79.2310   24.7603  -75.5652 O.2       2 UNK        -0.5226 
     62 CA        -81.3559   24.4353  -74.4786 C.3       2 UNK         0.0269 
     63 CB        -81.2406   23.6326  -73.1709 C.3       2 UNK        -0.1926 
     64 N         -81.3759   25.8621  -74.1403 N.am      2 UNK        -0.4687 
     65 C         -81.6179   26.8698  -74.9932 C.2       1 UNK         0.5165 
     66 O         -81.8298   26.7142  -76.1971 O.2       1 UNK        -0.5079 
     67 H67       -83.2412   28.2810  -70.6825 H         1 UNK         0.0900 
     68 H68       -84.8358   28.8102  -71.2221 H         1 UNK         0.0900 
     69 H69       -84.4742   27.0867  -71.0919 H         1 UNK         0.0900 
     70 H70       -81.6949   28.4754  -72.2810 H         1 UNK         0.2959 
     71 H71       -82.3282   28.8776  -75.0484 H         1 UNK         0.1079 
     72 H72       -79.8206   28.8739  -75.3469 H         1 UNK         0.0837 
     73 H73       -79.6222   28.4416  -73.6784 H         1 UNK         0.0837 
     74 H74       -80.9233   30.2927  -71.6565 H         1 UNK         0.0685 
     75 H75       -80.1909   31.8590  -71.8417 H         1 UNK         0.0685 
     76 H76       -79.5516   28.3413  -71.1657 H         1 UNK         0.1434 
     77 H77       -75.3169   28.7942  -70.7374 H         1 UNK         0.1329 
     78 H78       -77.6733   32.0596  -72.2014 H         1 UNK         0.1335 
     79 H79       -75.3254   32.4151  -71.6490 H         1 UNK         0.0680 
     80 H80       -74.5162   31.2353  -70.6448 H         1 UNK         0.0680 
     81 H81       -72.3506   31.5438  -71.4762 H         1 UNK         0.1032 
     82 H82       -71.7811   31.3576  -73.0983 H         1 UNK         0.1032 
     83 H83       -70.7509   29.6382  -71.8279 H         1 UNK         0.0461 
     84 H84       -73.1755   27.2757  -69.7740 H         1 UNK         0.3453 
     85 H85       -72.8704   27.0952  -71.4851 H         1 UNK         0.3453 
     86 H86       -72.6392   28.8026  -73.8347 H         1 UNK         0.2984 
     87 H87       -70.3750   26.5137  -75.1761 H         1 UNK         0.0554 
     88 H88       -71.5922   24.8240  -73.8691 H         1 UNK         0.0847 
     89 H89       -72.3510   24.9725  -75.4469 H         1 UNK         0.0847 
     90 H90       -73.0985   25.7078  -74.0316 H         1 UNK         0.0847 
     91 H91       -73.0235   27.4130  -75.9279 H         1 UNK         0.3141 
     92 H92       -73.1451   29.9110  -76.7132 H         1 UNK         0.0743 
     93 H93       -71.1894   31.3058  -77.3166 H         1 UNK         0.0784 
     94 H94       -72.3077   31.2144  -78.6667 H         1 UNK         0.0784 
     95 H95       -70.8232   30.2633  -78.6835 H         1 UNK         0.0784 
     96 H96       -74.0808   28.6812  -78.2903 H         1 UNK         0.3213 
     97 H97       -73.7399   27.7778  -80.9900 H         1 UNK         0.0855 
     98 H98       -72.6466   25.0823  -80.0308 H         1 UNK         0.0814 
     99 H99       -72.1078   26.0108  -81.4186 H         1 UNK         0.0814 
    100 H100      -73.7111   25.2957  -81.4214 H         1 UNK         0.0814 
    101 H101      -75.6005   27.4273  -79.8589 H         1 UNK         0.3105 
    102 H102      -76.7889   27.2375  -77.9045 H         1 UNK         0.0547 
    103 H103      -78.5221   25.4797  -78.3182 H         1 UNK         0.0837 
    104 H104      -77.2571   24.3159  -78.7176 H         1 UNK         0.0837 
    105 H105      -77.5261   25.7155  -79.7436 H         1 UNK         0.0837 
    106 H106      -77.3636   25.1183  -76.2676 H         1 UNK         0.3020 
    107 H107      -75.3781   25.6251  -73.4256 H         1 UNK         0.1245 
    108 H108      -78.2006   26.6136  -74.0518 H         1 UNK         0.0781 
    109 H109      -76.9464   27.5016  -73.2504 H         1 UNK         0.0781 
    110 H110      -76.2478   26.6696  -70.3870 H         1 UNK         0.0836 
    111 H111      -77.7992   26.7603  -69.5880 H         1 UNK         0.0836 
    112 H112      -77.7138   24.1164  -74.4019 H         1 UNK         0.3022 
    113 H113      -75.9333   21.1315  -74.9049 H         1 UNK         0.0747 
    114 H114      -77.3122   20.1254  -73.0893 H         1 UNK         0.0793 
    115 H115      -75.9614   21.0203  -72.4136 H         1 UNK         0.0793 
    116 H116      -77.5738   21.7195  -72.3776 H         1 UNK         0.0793 
    117 H117      -78.7361   21.8192  -74.5524 H         1 UNK         0.3047 
    118 H118      -79.2771   22.9819  -77.8248 H         1 UNK         0.0822 
    119 H119      -80.8966   21.1256  -78.0773 H         1 UNK         0.0807 
    120 H120      -80.1137   20.2231  -76.7784 H         1 UNK         0.0807 
    121 H121      -79.2626   20.5220  -78.2875 H         1 UNK         0.0807 
    122 H122      -81.1896   22.3133  -75.8890 H         1 UNK         0.2946 
    123 H123      -82.3066   24.1977  -74.9612 H         1 UNK         0.1144 
    124 H124      -82.0571   23.8682  -72.4876 H         1 UNK         0.0793 
    125 H125      -80.3023   23.8382  -72.6536 H         1 UNK         0.0793 
    126 H126      -81.2819   22.5586  -73.3565 H         1 UNK         0.0793 
    127 H127      -81.2031   26.0940  -73.1738 H         1 UNK         0.2896 
@<TRIPOS>BOND
     1    1    2 1    
     2    1   67 1    
     3    1   68 1    
     4    1   69 1    
     5    2    3 2    
     6    2    4 am   BACKBONE|DICT|INTERRES
     7    4    5 1    
     8    4   70 1    
     9    5    6 1    
    10    5   65 1    
    11    5   71 1    
    12    6    7 1    
    13    6   72 1    
    14    6   73 1    
    15    7    8 1    
    16    8    9 1    
    17    8   74 1    
    18    8   75 1    
    19    9   10 ar   
    20    9   14 ar   
    21   10   11 ar   
    22   10   76 1    
    23   11   12 ar   
    24   11   48 1    
    25   12   13 ar   
    26   12   77 1    
    27   13   14 ar   
    28   13   15 1    
    29   14   78 1    
    30   15   16 1    
    31   15   79 1    
    32   15   80 1    
    33   16   17 1    
    34   17   18 1    
    35   17   81 1    
    36   17   82 1    
    37   18   19 1    
    38   18   22 1    
    39   18   83 1    
    40   19   20 am   BACKBONE|DICT|INTERRES
    41   19   21 2    
    42   20   84 1    
    43   20   85 1    
    44   22   23 am   BACKBONE|DICT|INTERRES
    45   22   86 1    
    46   23   24 2    
    47   23   25 1    
    48   25   26 1    
    49   25   27 1    
    50   25   87 1    
    51   26   88 1    
    52   26   89 1    
    53   26   90 1    
    54   27   28 am   BACKBONE|DICT|INTERRES
    55   27   91 1    
    56   28   29 2    
    57   28   30 1    
    58   30   31 1    
    59   30   32 1    
    60   30   92 1    
    61   31   93 1    
    62   31   94 1    
    63   31   95 1    
    64   32   33 am   BACKBONE|DICT|INTERRES
    65   32   96 1    
    66   33   34 2    
    67   33   35 1    
    68   35   36 1    
    69   35   37 1    
    70   35   97 1    
    71   36   98 1    
    72   36   99 1    
    73   36  100 1    
    74   37   38 am   BACKBONE|DICT|INTERRES
    75   37  101 1    
    76   38   39 2    
    77   38   40 1    
    78   40   41 1    
    79   40   42 1    
    80   40  102 1    
    81   41  103 1    
    82   41  104 1    
    83   41  105 1    
    84   42   43 am   BACKBONE|DICT|INTERRES
    85   42  106 1    
    86   43   44 2    
    87   43   45 1    
    88   45   46 1    
    89   45   49 1    
    90   45  107 1    
    91   46   47 1    
    92   46  108 1    
    93   46  109 1    
    94   47   48 1    
    95   48  110 1    
    96   48  111 1    
    97   49   50 am   BACKBONE|DICT|INTERRES
    98   49  112 1    
    99   50   51 2    
   100   50   52 1    
   101   52   53 1    
   102   52   54 1    
   103   52  113 1    
   104   53  114 1    
   105   53  115 1    
   106   53  116 1    
   107   54   55 am   BACKBONE|DICT|INTERRES
   108   54  117 1    
   109   55   56 2    
   110   55   57 1    
   111   57   58 1    
   112   57   59 1    
   113   57  118 1    
   114   58  119 1    
   115   58  120 1    
   116   58  121 1    
   117   59   60 am   BACKBONE|DICT|INTERRES
   118   59  122 1    
   119   60   61 2    
   120   60   62 1    
   121   62   63 1    
   122   62   64 1    
   123   62  123 1    
   124   63  124 1    
   125   63  125 1    
   126   63  126 1    
   127   64   65 am   BACKBONE|DICT|INTERRES
   128   64  127 1    
   129   65   66 2    
@<TRIPOS>SUBSTRUCTURE
     1 UNK         1 GROUP             0       ****    0 ROOT    
