@<TRIPOS>MOLECULE
3R135
127   129    1
SMALL
USER_CHARGES


@<TRIPOS>ATOM
      1 CA        -83.9853   23.7162  -68.6628 C.3       0 UNK        -0.1998 
      2 C         -82.9722   24.1939  -69.6919 C.2       0 UNK         0.4909 
      3 O         -81.9147   23.5797  -69.8377 O.2       0 UNK        -0.5240 
      4 N         -83.2923   25.2780  -70.4134 N.am      1 UNK        -0.4739 
      5 CA        -82.4943   25.9352  -71.4627 C.3       1 UNK         0.0864 
      6 C6        -81.0760   26.3553  -70.9855 C.3       11 UNK        -0.0881 
      7 S7        -80.5281   27.9368  -71.7074 S.3       11 UNK        -0.2682 
      8 C8        -79.0516   27.4495  -72.6549 C.3       11 UNK         0.0289 
      9 C9        -78.0967   28.6277  -72.7672 C.ar      11 UNK        -0.0687 
     10 C10       -78.2411   29.5663  -73.7925 C.ar      11 UNK        -0.0823 
     11 C11       -77.3890   30.6754  -73.8684 C.ar      11 UNK        -0.0830 
     12 C12       -76.3937   30.8427  -72.8994 C.ar      11 UNK        -0.1021 
     13 C13       -76.2441   29.9129  -71.8663 C.ar      11 UNK        -0.0753 
     14 C14       -77.0921   28.8035  -71.8120 C.ar      11 UNK        -0.0933 
     15 C15       -75.2067   30.1250  -70.7738 C.3       11 UNK         0.0166 
     16 S16       -73.5955   29.4055  -71.2140 S.3       11 UNK        -0.2615 
     17 C17       -72.7510   30.8034  -72.0359 C.3       11 UNK        -0.0865 
     18 CA        -72.6875   30.6756  -73.5854 C.3       10 UNK         0.0862 
     19 C         -72.0591   31.9287  -74.2650 C.2       10 UNK         0.5551 
     20 N         -71.3243   31.7870  -75.3616 N.am      10 UNK        -0.7319 
     21 O         -72.2663   33.0523  -73.8132 O.2       10 UNK        -0.5018 
     22 N         -72.1427   29.3915  -74.0546 N.am      10 UNK        -0.4509 
     23 C         -70.9416   28.8628  -73.7871 C.2       10 UNK         0.4899 
     24 O         -70.0844   29.4054  -73.0881 O.2       10 UNK        -0.4839 
     25 CA        -70.6590   27.4941  -74.4386 C.3       9 UNK         0.0222 
     26 CB        -69.4471   26.7587  -73.8276 C.3       9 UNK        -0.1966 
     27 N         -71.8555   26.6435  -74.4732 N.am      9 UNK        -0.4218 
     28 C         -72.5122   26.0943  -73.4388 C.2       9 UNK         0.5020 
     29 O         -72.1154   26.1188  -72.2733 O.2       9 UNK        -0.5274 
     30 CA        -73.8566   25.4053  -73.7512 C.3       8 UNK         0.0270 
     31 CB        -75.0277   26.3122  -73.3358 C.3       8 UNK        -0.1976 
     32 N         -74.0191   25.0378  -75.1611 N.am      8 UNK        -0.4313 
     33 C         -73.3341   24.0700  -75.7871 C.2       8 UNK         0.5041 
     34 O         -72.5307   23.3238  -75.2270 O.2       8 UNK        -0.5577 
     35 CA        -73.5598   23.9369  -77.3014 C.3       7 UNK         0.0284 
     36 CB        -74.7951   23.0724  -77.5981 C.3       7 UNK        -0.1958 
     37 N         -73.7045   25.2452  -77.9452 N.am      7 UNK        -0.4454 
     38 C         -72.6844   26.0739  -78.2095 C.2       7 UNK         0.5089 
     39 O         -71.5052   25.8039  -77.9834 O.2       7 UNK        -0.5125 
     40 CA        -73.0393   27.4487  -78.8038 C.3       6 UNK         0.0408 
     41 CB        -73.1049   27.3708  -80.3371 C.3       6 UNK        -0.1791 
     42 N         -74.2975   27.9957  -78.2884 N.am      6 UNK        -0.4762 
     43 C         -74.4975   28.3777  -77.0181 C.2       6 UNK         0.5007 
     44 O         -73.6329   28.3211  -76.1464 O.2       6 UNK        -0.5032 
     45 CA        -75.9139   28.8584  -76.6493 C.3       5 UNK         0.0783 
     46 C46       -76.0431   30.3786  -76.9204 C.3       11 UNK        -0.0857 
     47 S47       -77.7243   31.0239  -76.6283 S.3       11 UNK        -0.2512 
     48 C48       -77.5764   31.7296  -74.9545 C.3       11 UNK         0.0225 
     49 N         -76.9657   28.0716  -77.3071 N.am      5 UNK        -0.4615 
     50 C         -77.1277   26.7482  -77.1933 C.2       4 UNK         0.5053 
     51 O         -76.3662   26.0110  -76.5598 O.2       4 UNK        -0.5105 
     52 CA        -78.3049   26.1447  -77.9622 C.3       4 UNK         0.0263 
     53 CB        -78.0049   26.0915  -79.4723 C.3       4 UNK        -0.1981 
     54 N         -78.5470   24.7968  -77.4610 N.am      4 UNK        -0.4224 
     55 C         -79.7127   24.1452  -77.5044 C.2       3 UNK         0.4895 
     56 O         -80.7418   24.6182  -77.9908 O.2       3 UNK        -0.5091 
     57 CA        -79.7529   22.7128  -76.9381 C.3       3 UNK         0.0250 
     58 CB        -78.3846   22.1533  -76.4808 C.3       3 UNK        -0.1996 
     59 N         -80.7605   22.5880  -75.8804 N.am      3 UNK        -0.4254 
     60 C         -80.7637   23.2026  -74.6888 C.2       2 UNK         0.5004 
     61 O         -79.8580   23.9349  -74.2805 O.2       2 UNK        -0.5226 
     62 CA        -81.9796   22.8988  -73.7941 C.3       2 UNK         0.0269 
     63 CB        -81.8848   21.4774  -73.2122 C.3       2 UNK        -0.1926 
     64 N         -82.1122   23.8406  -72.6832 N.am      2 UNK        -0.4687 
     65 C         -82.4538   25.1307  -72.7803 C.2       1 UNK         0.5165 
     66 O         -82.7704   25.6750  -73.8394 O.2       1 UNK        -0.5079 
     67 H67       -84.8724   24.3488  -68.6382 H         1 UNK         0.0900 
     68 H68       -84.3004   22.6985  -68.8916 H         1 UNK         0.0900 
     69 H69       -83.5390   23.7195  -67.6687 H         1 UNK         0.0900 
     70 H70       -84.1942   25.7061  -70.2524 H         1 UNK         0.2959 
     71 H71       -83.0551   26.8449  -71.6856 H         1 UNK         0.1079 
     72 H72       -80.3417   25.5667  -71.1609 H         1 UNK         0.0837 
     73 H73       -81.0781   26.5072  -69.9050 H         1 UNK         0.0837 
     74 H74       -78.5457   26.6145  -72.1679 H         1 UNK         0.0685 
     75 H75       -79.3496   27.0965  -73.6437 H         1 UNK         0.0685 
     76 H76       -79.0305   29.4428  -74.5213 H         1 UNK         0.1434 
     77 H77       -75.7477   31.7094  -72.9325 H         1 UNK         0.1329 
     78 H78       -76.9875   28.0882  -71.0077 H         1 UNK         0.1335 
     79 H79       -75.1062   31.1861  -70.5422 H         1 UNK         0.0680 
     80 H80       -75.5480   29.6545  -69.8504 H         1 UNK         0.0680 
     81 H81       -71.7434   30.8748  -71.6239 H         1 UNK         0.1032 
     82 H82       -73.2442   31.7343  -71.7527 H         1 UNK         0.1032 
     83 H83       -73.7172   30.6717  -73.9423 H         1 UNK         0.0461 
     84 H84       -70.9293   32.6025  -75.8024 H         1 UNK         0.3453 
     85 H85       -71.1602   30.8715  -75.7476 H         1 UNK         0.3453 
     86 H86       -72.7432   28.8884  -74.7049 H         1 UNK         0.2984 
     87 H87       -70.4183   27.7031  -75.4819 H         1 UNK         0.0554 
     88 H88       -69.2873   25.7921  -74.3052 H         1 UNK         0.0847 
     89 H89       -69.5697   26.5897  -72.7575 H         1 UNK         0.0847 
     90 H90       -68.5337   27.3400  -73.9585 H         1 UNK         0.0847 
     91 H91       -72.3159   26.5943  -75.3727 H         1 UNK         0.3141 
     92 H92       -73.9033   24.4904  -73.1570 H         1 UNK         0.0743 
     93 H93       -74.9808   26.5445  -72.2710 H         1 UNK         0.0784 
     94 H94       -75.9909   25.8369  -73.5230 H         1 UNK         0.0784 
     95 H95       -75.0123   27.2619  -73.8711 H         1 UNK         0.0784 
     96 H96       -74.7245   25.5474  -75.6880 H         1 UNK         0.3213 
     97 H97       -72.6870   23.4357  -77.7263 H         1 UNK         0.0855 
     98 H98       -75.7025   23.5129  -77.1880 H         1 UNK         0.0814 
     99 H99       -74.6889   22.0794  -77.1591 H         1 UNK         0.0814 
    100 H100      -74.9397   22.9390  -78.6703 H         1 UNK         0.0814 
    101 H101      -74.6459   25.5725  -78.1094 H         1 UNK         0.3105 
    102 H102      -72.2389   28.1410  -78.5333 H         1 UNK         0.0547 
    103 H103      -72.1699   26.9869  -80.7478 H         1 UNK         0.0837 
    104 H104      -73.9043   26.7111  -80.6766 H         1 UNK         0.0837 
    105 H105      -73.2694   28.3540  -80.7782 H         1 UNK         0.0837 
    106 H106      -75.0659   28.0738  -78.9391 H         1 UNK         0.3020 
    107 H107      -76.0285   28.6976  -75.5752 H         1 UNK         0.1245 
    108 H108      -75.3320   30.9373  -76.3082 H         1 UNK         0.0781 
    109 H109      -75.7889   30.6051  -77.9579 H         1 UNK         0.0781 
    110 H110      -78.4840   32.2929  -74.7340 H         1 UNK         0.0836 
    111 H111      -76.7592   32.4526  -74.9457 H         1 UNK         0.0836 
    112 H112      -77.6372   28.6048  -77.8409 H         1 UNK         0.3022 
    113 H113      -79.1854   26.7643  -77.7785 H         1 UNK         0.0747 
    114 H114      -78.8433   25.6709  -80.0278 H         1 UNK         0.0793 
    115 H115      -77.1255   25.4827  -79.6869 H         1 UNK         0.0793 
    116 H116      -77.8219   27.0875  -79.8769 H         1 UNK         0.0793 
    117 H117      -77.7647   24.3919  -76.9630 H         1 UNK         0.3047 
    118 H118      -80.0982   22.0814  -77.7583 H         1 UNK         0.0822 
    119 H119      -78.4863   21.1346  -76.1063 H         1 UNK         0.0807 
    120 H120      -77.9307   22.7485  -75.6876 H         1 UNK         0.0807 
    121 H121      -77.6827   22.1125  -77.3143 H         1 UNK         0.0807 
    122 H122      -81.5614   22.0206  -76.1214 H         1 UNK         0.2946 
    123 H123      -82.8800   22.9737  -74.4082 H         1 UNK         0.1144 
    124 H124      -81.8343   20.7261  -74.0012 H         1 UNK         0.0793 
    125 H125      -82.7553   21.2408  -72.5998 H         1 UNK         0.0793 
    126 H126      -80.9964   21.3573  -72.5905 H         1 UNK         0.0793 
    127 H127      -81.8704   23.5007  -71.7566 H         1 UNK         0.2896 
@<TRIPOS>BOND
     1    1    2 1    
     2    1   67 1    
     3    1   68 1    
     4    1   69 1    
     5    2    3 2    
     6    2    4 am   BACKBONE|DICT|INTERRES
     7    4    5 1    
     8    4   70 1    
     9    5    6 1    
    10    5   65 1    
    11    5   71 1    
    12    6    7 1    
    13    6   72 1    
    14    6   73 1    
    15    7    8 1    
    16    8    9 1    
    17    8   74 1    
    18    8   75 1    
    19    9   10 ar   
    20    9   14 ar   
    21   10   11 ar   
    22   10   76 1    
    23   11   12 ar   
    24   11   48 1    
    25   12   13 ar   
    26   12   77 1    
    27   13   14 ar   
    28   13   15 1    
    29   14   78 1    
    30   15   16 1    
    31   15   79 1    
    32   15   80 1    
    33   16   17 1    
    34   17   18 1    
    35   17   81 1    
    36   17   82 1    
    37   18   19 1    
    38   18   22 1    
    39   18   83 1    
    40   19   20 am   BACKBONE|DICT|INTERRES
    41   19   21 2    
    42   20   84 1    
    43   20   85 1    
    44   22   23 am   BACKBONE|DICT|INTERRES
    45   22   86 1    
    46   23   24 2    
    47   23   25 1    
    48   25   26 1    
    49   25   27 1    
    50   25   87 1    
    51   26   88 1    
    52   26   89 1    
    53   26   90 1    
    54   27   28 am   BACKBONE|DICT|INTERRES
    55   27   91 1    
    56   28   29 2    
    57   28   30 1    
    58   30   31 1    
    59   30   32 1    
    60   30   92 1    
    61   31   93 1    
    62   31   94 1    
    63   31   95 1    
    64   32   33 am   BACKBONE|DICT|INTERRES
    65   32   96 1    
    66   33   34 2    
    67   33   35 1    
    68   35   36 1    
    69   35   37 1    
    70   35   97 1    
    71   36   98 1    
    72   36   99 1    
    73   36  100 1    
    74   37   38 am   BACKBONE|DICT|INTERRES
    75   37  101 1    
    76   38   39 2    
    77   38   40 1    
    78   40   41 1    
    79   40   42 1    
    80   40  102 1    
    81   41  103 1    
    82   41  104 1    
    83   41  105 1    
    84   42   43 am   BACKBONE|DICT|INTERRES
    85   42  106 1    
    86   43   44 2    
    87   43   45 1    
    88   45   46 1    
    89   45   49 1    
    90   45  107 1    
    91   46   47 1    
    92   46  108 1    
    93   46  109 1    
    94   47   48 1    
    95   48  110 1    
    96   48  111 1    
    97   49   50 am   BACKBONE|DICT|INTERRES
    98   49  112 1    
    99   50   51 2    
   100   50   52 1    
   101   52   53 1    
   102   52   54 1    
   103   52  113 1    
   104   53  114 1    
   105   53  115 1    
   106   53  116 1    
   107   54   55 am   BACKBONE|DICT|INTERRES
   108   54  117 1    
   109   55   56 2    
   110   55   57 1    
   111   57   58 1    
   112   57   59 1    
   113   57  118 1    
   114   58  119 1    
   115   58  120 1    
   116   58  121 1    
   117   59   60 am   BACKBONE|DICT|INTERRES
   118   59  122 1    
   119   60   61 2    
   120   60   62 1    
   121   62   63 1    
   122   62   64 1    
   123   62  123 1    
   124   63  124 1    
   125   63  125 1    
   126   63  126 1    
   127   64   65 am   BACKBONE|DICT|INTERRES
   128   64  127 1    
   129   65   66 2    
@<TRIPOS>SUBSTRUCTURE
     1 UNK         1 GROUP             0       ****    0 ROOT    
