@<TRIPOS>MOLECULE
3R135
127   129    1
SMALL
USER_CHARGES


@<TRIPOS>ATOM
      1 CA        -84.1112   24.6548  -74.2888 C.3       0 UNK        -0.1998 
      2 C         -83.2762   25.8601  -74.6950 C.2       0 UNK         0.4909 
      3 O         -83.5160   26.4415  -75.7536 O.2       0 UNK        -0.5240 
      4 N         -82.3063   26.2470  -73.8568 N.am      1 UNK        -0.4739 
      5 CA        -81.3847   27.3541  -74.1134 C.3       1 UNK         0.0864 
      6 C6        -80.8445   27.9536  -72.7937 C.3       11 UNK        -0.0881 
      7 S7        -80.3979   29.7176  -72.9503 S.3       11 UNK        -0.2682 
      8 C8        -79.9188   30.1295  -71.2376 C.3       11 UNK         0.0289 
      9 C9        -78.5703   29.5205  -70.8874 C.ar      11 UNK        -0.0687 
     10 C10       -78.4991   28.2031  -70.4341 C.ar      11 UNK        -0.0823 
     11 C11       -77.2654   27.5695  -70.2637 C.ar      11 UNK        -0.0830 
     12 C12       -76.0907   28.3081  -70.4475 C.ar      11 UNK        -0.1021 
     13 C13       -76.1482   29.6552  -70.8241 C.ar      11 UNK        -0.0753 
     14 C14       -77.3922   30.2515  -71.0561 C.ar      11 UNK        -0.0933 
     15 C15       -74.8721   30.4726  -70.9667 C.3       11 UNK         0.0166 
     16 S16       -74.6508   31.1172  -72.6544 S.3       11 UNK        -0.2615 
     17 C17       -73.1376   32.1221  -72.4316 C.3       11 UNK        -0.0865 
     18 CA        -71.9045   31.5706  -73.1922 C.3       10 UNK         0.0862 
     19 C         -71.3668   30.2528  -72.5583 C.2       10 UNK         0.5551 
     20 N         -71.4222   29.1132  -73.2374 N.am      10 UNK        -0.7319 
     21 O         -70.8822   30.2726  -71.4295 O.2       10 UNK        -0.5018 
     22 N         -72.1634   31.5066  -74.6367 N.am      10 UNK        -0.4509 
     23 C         -71.2245   31.4538  -75.5862 C.2       10 UNK         0.4899 
     24 O         -70.0139   31.5485  -75.3759 O.2       10 UNK        -0.4839 
     25 CA        -71.7350   31.2246  -77.0194 C.3       9 UNK         0.0222 
     26 CB        -71.1339   32.2495  -77.9968 C.3       9 UNK        -0.1966 
     27 N         -71.4413   29.8689  -77.4920 N.am      9 UNK        -0.4218 
     28 C         -71.8609   28.7383  -76.9091 C.2       9 UNK         0.5020 
     29 O         -72.5589   28.6994  -75.8893 O.2       9 UNK        -0.5274 
     30 CA        -71.4187   27.4261  -77.5657 C.3       8 UNK         0.0270 
     31 CB        -69.9564   27.0931  -77.2217 C.3       8 UNK        -0.1976 
     32 N         -72.2899   26.3782  -77.0526 N.am      8 UNK        -0.4313 
     33 C         -72.7922   25.3476  -77.7357 C.2       8 UNK         0.5041 
     34 O         -72.4753   25.0732  -78.8940 O.2       8 UNK        -0.5577 
     35 CA        -73.8321   24.4745  -77.0092 C.3       7 UNK         0.0284 
     36 CB        -73.2362   23.1066  -76.6397 C.3       7 UNK        -0.1958 
     37 N         -74.3778   25.0982  -75.7981 N.am      7 UNK        -0.4454 
     38 C         -75.2965   26.0717  -75.7746 C.2       7 UNK         0.5089 
     39 O         -75.8419   26.5186  -76.7850 O.2       7 UNK        -0.5125 
     40 CA        -75.7098   26.5661  -74.3765 C.3       6 UNK         0.0408 
     41 CB        -76.4522   27.9132  -74.4045 C.3       6 UNK        -0.1791 
     42 N         -76.5450   25.5566  -73.7235 N.am      6 UNK        -0.4762 
     43 C         -76.0605   24.4614  -73.1149 C.2       6 UNK         0.5007 
     44 O         -74.8546   24.2472  -72.9776 O.2       6 UNK        -0.5032 
     45 CA        -77.0620   23.3966  -72.6391 C.3       5 UNK         0.0783 
     46 C46       -77.4871   23.5567  -71.1561 C.3       11 UNK        -0.0857 
     47 S47       -78.4253   25.0810  -70.8077 S.3       11 UNK        -0.2512 
     48 C48       -77.1964   26.0896  -69.8980 C.3       11 UNK         0.0225 
     49 N         -78.1803   23.2777  -73.5775 N.am      5 UNK        -0.4615 
     50 C         -78.8275   22.1338  -73.8240 C.2       4 UNK         0.5053 
     51 O         -78.6548   21.0942  -73.1867 O.2       4 UNK        -0.5105 
     52 CA        -79.8015   22.1340  -75.0133 C.3       4 UNK         0.0263 
     53 CB        -81.1682   22.6896  -74.5905 C.3       4 UNK        -0.1981 
     54 N         -79.3006   22.8924  -76.1633 N.am      4 UNK        -0.4224 
     55 C         -78.2078   22.5955  -76.8806 C.2       3 UNK         0.4895 
     56 O         -77.5013   21.6103  -76.6662 O.2       3 UNK        -0.5091 
     57 CA        -77.8112   23.5513  -78.0236 C.3       3 UNK         0.0250 
     58 CB        -78.3952   23.0799  -79.3699 C.3       3 UNK        -0.1996 
     59 N         -78.0964   24.9738  -77.7742 N.am      3 UNK        -0.4254 
     60 C         -79.2874   25.5774  -77.6695 C.2       2 UNK         0.5004 
     61 O         -80.3698   25.0009  -77.7973 O.2       2 UNK        -0.5226 
     62 CA        -79.2671   27.0752  -77.3274 C.3       2 UNK         0.0269 
     63 CB        -79.5812   27.9158  -78.5750 C.3       2 UNK        -0.1926 
     64 N         -80.2195   27.4121  -76.2661 N.am      2 UNK        -0.4687 
     65 C         -80.2494   26.8712  -75.0392 C.2       1 UNK         0.5165 
     66 O         -79.4398   26.0286  -74.6300 O.2       1 UNK        -0.5079 
     67 H67       -83.7397   24.1893  -73.3760 H         1 UNK         0.0900 
     68 H68       -84.0997   23.9059  -75.0801 H         1 UNK         0.0900 
     69 H69       -85.1450   24.9552  -74.1206 H         1 UNK         0.0900 
     70 H70       -82.1326   25.7188  -73.0136 H         1 UNK         0.2959 
     71 H71       -81.9483   28.1373  -74.6265 H         1 UNK         0.1079 
     72 H72       -79.9916   27.3774  -72.4366 H         1 UNK         0.0837 
     73 H73       -81.6030   27.8874  -72.0118 H         1 UNK         0.0837 
     74 H74       -79.8766   31.2148  -71.1342 H         1 UNK         0.0685 
     75 H75       -80.6870   29.7850  -70.5435 H         1 UNK         0.0685 
     76 H76       -79.4126   27.6486  -70.2726 H         1 UNK         0.1434 
     77 H77       -75.1299   27.8350  -70.2963 H         1 UNK         0.1329 
     78 H78       -77.4397   31.2803  -71.3863 H         1 UNK         0.1335 
     79 H79       -73.9977   29.8774  -70.6980 H         1 UNK         0.0680 
     80 H80       -74.9113   31.3059  -70.2637 H         1 UNK         0.0680 
     81 H81       -72.9104   32.2355  -71.3697 H         1 UNK         0.1032 
     82 H82       -73.3560   33.1314  -72.7839 H         1 UNK         0.1032 
     83 H83       -71.1045   32.3006  -73.0529 H         1 UNK         0.0461 
     84 H84       -71.8473   29.0819  -74.1594 H         1 UNK         0.3453 
     85 H85       -71.0667   28.2707  -72.8165 H         1 UNK         0.3453 
     86 H86       -73.1282   31.3555  -74.8948 H         1 UNK         0.2984 
     87 H87       -72.8200   31.3499  -77.0305 H         1 UNK         0.0554 
     88 H88       -71.5561   32.1425  -78.9962 H         1 UNK         0.0847 
     89 H89       -70.0507   32.1478  -78.0768 H         1 UNK         0.0847 
     90 H90       -71.3406   33.2687  -77.6675 H         1 UNK         0.0847 
     91 H91       -70.8479   29.7981  -78.3061 H         1 UNK         0.3141 
     92 H92       -71.5387   27.5182  -78.6475 H         1 UNK         0.0743 
     93 H93       -69.8016   27.0260  -76.1438 H         1 UNK         0.0784 
     94 H94       -69.6542   26.1427  -77.6621 H         1 UNK         0.0784 
     95 H95       -69.2774   27.8566  -77.6029 H         1 UNK         0.0784 
     96 H96       -72.6705   26.5846  -76.1373 H         1 UNK         0.3213 
     97 H97       -74.6483   24.3116  -77.7135 H         1 UNK         0.0855 
     98 H98       -72.4151   23.2024  -75.9282 H         1 UNK         0.0814 
     99 H99       -72.8450   22.5992  -77.5228 H         1 UNK         0.0814 
    100 H100      -73.9894   22.4523  -76.1998 H         1 UNK         0.0814 
    101 H101      -74.0506   24.7428  -74.9061 H         1 UNK         0.3105 
    102 H102      -74.7986   26.7177  -73.7933 H         1 UNK         0.0547 
    103 H103      -75.8478   28.6796  -74.8915 H         1 UNK         0.0837 
    104 H104      -77.3982   27.8528  -74.9375 H         1 UNK         0.0837 
    105 H105      -76.6671   28.2655  -73.3958 H         1 UNK         0.0837 
    106 H106      -77.5472   25.6953  -73.7966 H         1 UNK         0.3020 
    107 H107      -76.5035   22.4586  -72.6983 H         1 UNK         0.1245 
    108 H108      -76.6144   23.4964  -70.5039 H         1 UNK         0.0781 
    109 H109      -78.1153   22.7129  -70.8674 H         1 UNK         0.0781 
    110 H110      -76.1929   25.7137  -70.1021 H         1 UNK         0.0836 
    111 H111      -77.3607   25.9744  -68.8260 H         1 UNK         0.0836 
    112 H112      -78.4075   24.0926  -74.1330 H         1 UNK         0.3022 
    113 H113      -79.9358   21.0988  -75.3339 H         1 UNK         0.0747 
    114 H114      -81.8833   22.6514  -75.4123 H         1 UNK         0.0793 
    115 H115      -81.5875   22.1120  -73.7656 H         1 UNK         0.0793 
    116 H116      -81.0885   23.7242  -74.2585 H         1 UNK         0.0793 
    117 H117      -79.8409   23.7001  -76.4599 H         1 UNK         0.3047 
    118 H118      -76.7271   23.4843  -78.1076 H         1 UNK         0.0822 
    119 H119      -78.0650   23.7169  -80.1904 H         1 UNK         0.0807 
    120 H120      -79.4855   23.0749  -79.3660 H         1 UNK         0.0807 
    121 H121      -78.0707   22.0637  -79.5980 H         1 UNK         0.0807 
    122 H122      -77.2729   25.5438  -77.5903 H         1 UNK         0.2946 
    123 H123      -78.2719   27.3467  -76.9771 H         1 UNK         0.1144 
    124 H124      -79.5169   28.9831  -78.3627 H         1 UNK         0.0793 
    125 H125      -80.5805   27.7076  -78.9600 H         1 UNK         0.0793 
    126 H126      -78.8722   27.7032  -79.3765 H         1 UNK         0.0793 
    127 H127      -80.9534   28.0570  -76.5204 H         1 UNK         0.2896 
@<TRIPOS>BOND
     1    1    2 1    
     2    1   67 1    
     3    1   68 1    
     4    1   69 1    
     5    2    3 2    
     6    2    4 am   BACKBONE|DICT|INTERRES
     7    4    5 1    
     8    4   70 1    
     9    5    6 1    
    10    5   65 1    
    11    5   71 1    
    12    6    7 1    
    13    6   72 1    
    14    6   73 1    
    15    7    8 1    
    16    8    9 1    
    17    8   74 1    
    18    8   75 1    
    19    9   10 ar   
    20    9   14 ar   
    21   10   11 ar   
    22   10   76 1    
    23   11   12 ar   
    24   11   48 1    
    25   12   13 ar   
    26   12   77 1    
    27   13   14 ar   
    28   13   15 1    
    29   14   78 1    
    30   15   16 1    
    31   15   79 1    
    32   15   80 1    
    33   16   17 1    
    34   17   18 1    
    35   17   81 1    
    36   17   82 1    
    37   18   19 1    
    38   18   22 1    
    39   18   83 1    
    40   19   20 am   BACKBONE|DICT|INTERRES
    41   19   21 2    
    42   20   84 1    
    43   20   85 1    
    44   22   23 am   BACKBONE|DICT|INTERRES
    45   22   86 1    
    46   23   24 2    
    47   23   25 1    
    48   25   26 1    
    49   25   27 1    
    50   25   87 1    
    51   26   88 1    
    52   26   89 1    
    53   26   90 1    
    54   27   28 am   BACKBONE|DICT|INTERRES
    55   27   91 1    
    56   28   29 2    
    57   28   30 1    
    58   30   31 1    
    59   30   32 1    
    60   30   92 1    
    61   31   93 1    
    62   31   94 1    
    63   31   95 1    
    64   32   33 am   BACKBONE|DICT|INTERRES
    65   32   96 1    
    66   33   34 2    
    67   33   35 1    
    68   35   36 1    
    69   35   37 1    
    70   35   97 1    
    71   36   98 1    
    72   36   99 1    
    73   36  100 1    
    74   37   38 am   BACKBONE|DICT|INTERRES
    75   37  101 1    
    76   38   39 2    
    77   38   40 1    
    78   40   41 1    
    79   40   42 1    
    80   40  102 1    
    81   41  103 1    
    82   41  104 1    
    83   41  105 1    
    84   42   43 am   BACKBONE|DICT|INTERRES
    85   42  106 1    
    86   43   44 2    
    87   43   45 1    
    88   45   46 1    
    89   45   49 1    
    90   45  107 1    
    91   46   47 1    
    92   46  108 1    
    93   46  109 1    
    94   47   48 1    
    95   48  110 1    
    96   48  111 1    
    97   49   50 am   BACKBONE|DICT|INTERRES
    98   49  112 1    
    99   50   51 2    
   100   50   52 1    
   101   52   53 1    
   102   52   54 1    
   103   52  113 1    
   104   53  114 1    
   105   53  115 1    
   106   53  116 1    
   107   54   55 am   BACKBONE|DICT|INTERRES
   108   54  117 1    
   109   55   56 2    
   110   55   57 1    
   111   57   58 1    
   112   57   59 1    
   113   57  118 1    
   114   58  119 1    
   115   58  120 1    
   116   58  121 1    
   117   59   60 am   BACKBONE|DICT|INTERRES
   118   59  122 1    
   119   60   61 2    
   120   60   62 1    
   121   62   63 1    
   122   62   64 1    
   123   62  123 1    
   124   63  124 1    
   125   63  125 1    
   126   63  126 1    
   127   64   65 am   BACKBONE|DICT|INTERRES
   128   64  127 1    
   129   65   66 2    
@<TRIPOS>SUBSTRUCTURE
     1 UNK         1 GROUP             0       ****    0 ROOT    
