@<TRIPOS>MOLECULE
3R135
127   129    1
SMALL
USER_CHARGES


@<TRIPOS>ATOM
      1 CA        -85.9555   28.8834  -76.3186 C.3       0 UNK        -0.1998 
      2 C         -84.6852   28.6035  -75.5292 C.2       0 UNK         0.4909 
      3 O         -84.7218   28.6018  -74.2981 O.2       0 UNK        -0.5240 
      4 N         -83.5664   28.3742  -76.2317 N.am      1 UNK        -0.4739 
      5 CA        -82.2481   28.0337  -75.6799 C.3       1 UNK         0.0864 
      6 C6        -81.6636   29.1696  -74.7875 C.3       11 UNK        -0.0881 
      7 S7        -79.8415   29.1898  -74.8077 S.3       11 UNK        -0.2682 
      8 C8        -79.4358   29.7292  -73.1182 C.3       11 UNK         0.0289 
      9 C9        -78.0268   29.2903  -72.7526 C.ar      11 UNK        -0.0687 
     10 C10       -77.8298   28.2504  -71.8386 C.ar      11 UNK        -0.0823 
     11 C11       -76.5410   27.7926  -71.5508 C.ar      11 UNK        -0.0830 
     12 C12       -75.4474   28.4002  -72.1702 C.ar      11 UNK        -0.1021 
     13 C13       -75.6273   29.4458  -73.0785 C.ar      11 UNK        -0.0753 
     14 C14       -76.9204   29.8952  -73.3584 C.ar      11 UNK        -0.0933 
     15 C15       -74.4325   30.0235  -73.8207 C.3       11 UNK         0.0166 
     16 S16       -73.6989   31.4737  -72.9993 S.3       11 UNK        -0.2615 
     17 C17       -72.8822   30.7771  -71.5176 C.3       11 UNK        -0.0865 
     18 CA        -71.3714   30.4602  -71.7380 C.3       10 UNK         0.0862 
     19 C         -70.5698   30.3337  -70.4038 C.2       10 UNK         0.5551 
     20 N         -69.5075   29.5393  -70.3473 N.am      10 UNK        -0.7319 
     21 O         -70.8873   30.9901  -69.4146 O.2       10 UNK        -0.5018 
     22 N         -71.1561   29.3566  -72.6939 N.am      10 UNK        -0.4509 
     23 C         -71.4816   28.0676  -72.5197 C.2       10 UNK         0.4899 
     24 O         -71.9737   27.6246  -71.4816 O.2       10 UNK        -0.4839 
     25 CA        -71.2282   27.1220  -73.7151 C.3       9 UNK         0.0222 
     26 CB        -71.7935   25.7087  -73.4792 C.3       9 UNK        -0.1966 
     27 N         -71.7707   27.6544  -74.9725 N.am      9 UNK        -0.4218 
     28 C         -71.1748   28.5916  -75.7254 C.2       9 UNK         0.5020 
     29 O         -70.0929   29.0985  -75.4204 O.2       9 UNK        -0.5274 
     30 CA        -71.9125   29.1026  -76.9806 C.3       8 UNK         0.0270 
     31 CB        -70.9381   29.5915  -78.0738 C.3       8 UNK        -0.1976 
     32 N         -72.8956   28.1764  -77.5533 N.am      8 UNK        -0.4313 
     33 C         -72.6951   26.9464  -78.0452 C.2       8 UNK         0.5041 
     34 O         -71.6095   26.3641  -78.0130 O.2       8 UNK        -0.5577 
     35 CA        -73.9230   26.2618  -78.6872 C.3       7 UNK         0.0284 
     36 CB        -73.6337   24.8124  -79.1203 C.3       7 UNK        -0.1958 
     37 N         -75.0998   26.2681  -77.8125 N.am      7 UNK        -0.4454 
     38 C         -75.8750   27.3284  -77.5391 C.2       7 UNK         0.5089 
     39 O         -75.6937   28.4406  -78.0364 O.2       7 UNK        -0.5125 
     40 CA        -77.0179   27.1424  -76.5238 C.3       6 UNK         0.0408 
     41 CB        -78.3623   27.0449  -77.2617 C.3       6 UNK        -0.1791 
     42 N         -76.8662   25.9777  -75.6473 N.am      6 UNK        -0.4762 
     43 C         -75.8592   25.7773  -74.7804 C.2       6 UNK         0.5007 
     44 O         -74.8989   26.5396  -74.6655 O.2       6 UNK        -0.5032 
     45 CA        -75.8960   24.4611  -73.9717 C.3       5 UNK         0.0783 
     46 C46       -76.5616   24.6447  -72.5841 C.3       11 UNK        -0.0857 
     47 S47       -75.4001   25.2508  -71.3165 S.3       11 UNK        -0.2512 
     48 C48       -76.3263   26.6397  -70.5780 C.3       11 UNK         0.0225 
     49 N         -76.5331   23.3745  -74.7263 N.am      5 UNK        -0.4615 
     50 C         -76.0219   22.8302  -75.8408 C.2       4 UNK         0.5053 
     51 O         -74.9397   23.1668  -76.3202 O.2       4 UNK        -0.5105 
     52 CA        -76.8448   21.7470  -76.5625 C.3       4 UNK         0.0263 
     53 CB        -76.2784   20.3518  -76.2536 C.3       4 UNK        -0.1981 
     54 N         -78.2772   21.7615  -76.2528 N.am      4 UNK        -0.4224 
     55 C         -79.1263   22.7549  -76.5500 C.2       3 UNK         0.4895 
     56 O         -78.7868   23.7943  -77.1156 O.2       3 UNK        -0.5091 
     57 CA        -80.5994   22.5792  -76.1296 C.3       3 UNK         0.0250 
     58 CB        -80.9223   21.2006  -75.5077 C.3       3 UNK        -0.1996 
     59 N         -81.0509   23.6490  -75.2326 N.am      3 UNK        -0.4254 
     60 C         -80.4857   24.0398  -74.0815 C.2       2 UNK         0.5004 
     61 O         -79.4343   23.5708  -73.6385 O.2       2 UNK        -0.5226 
     62 CA        -81.2317   25.1408  -73.3019 C.3       2 UNK         0.0269 
     63 CB        -80.5805   25.4487  -71.9423 C.3       2 UNK        -0.1926 
     64 N         -81.3494   26.3872  -74.0653 N.am      2 UNK        -0.4687 
     65 C         -82.2515   26.6280  -75.0259 C.2       1 UNK         0.5165 
     66 O         -83.0481   25.7705  -75.4198 O.2       1 UNK        -0.5079 
     67 H67       -86.7110   28.1317  -76.0912 H         1 UNK         0.0900 
     68 H68       -86.3557   29.8610  -76.0512 H         1 UNK         0.0900 
     69 H69       -85.7792   28.8722  -77.3941 H         1 UNK         0.0900 
     70 H70       -83.6207   28.3629  -77.2410 H         1 UNK         0.2959 
     71 H71       -81.6058   27.9350  -76.5567 H         1 UNK         0.1079 
     72 H72       -81.9876   30.1421  -75.1618 H         1 UNK         0.0837 
     73 H73       -82.0463   29.1063  -73.7672 H         1 UNK         0.0837 
     74 H74       -79.5185   30.8150  -73.0524 H         1 UNK         0.0685 
     75 H75       -80.1559   29.3166  -72.4101 H         1 UNK         0.0685 
     76 H76       -78.6820   27.7902  -71.3602 H         1 UNK         0.1434 
     77 H77       -74.4548   28.0227  -71.9745 H         1 UNK         0.1329 
     78 H78       -77.0707   30.6878  -74.0786 H         1 UNK         0.1335 
     79 H79       -74.7378   30.3138  -74.8272 H         1 UNK         0.0680 
     80 H80       -73.6766   29.2545  -73.9554 H         1 UNK         0.0680 
     81 H81       -73.0018   31.5310  -70.7377 H         1 UNK         0.1032 
     82 H82       -73.4165   29.9031  -71.1500 H         1 UNK         0.1032 
     83 H83       -70.9320   31.3356  -72.2174 H         1 UNK         0.0461 
     84 H84       -68.9858   29.4697  -69.4878 H         1 UNK         0.3453 
     85 H85       -69.2298   29.0038  -71.1539 H         1 UNK         0.3453 
     86 H86       -70.7160   29.6081  -73.5730 H         1 UNK         0.2984 
     87 H87       -70.1458   27.0231  -73.8190 H         1 UNK         0.0554 
     88 H88       -71.3057   25.2320  -72.6281 H         1 UNK         0.0847 
     89 H89       -71.6383   25.0644  -74.3447 H         1 UNK         0.0847 
     90 H90       -72.8614   25.7330  -73.2634 H         1 UNK         0.0847 
     91 H91       -72.6840   27.3144  -75.2477 H         1 UNK         0.3141 
     92 H92       -72.4858   29.9685  -76.6461 H         1 UNK         0.0743 
     93 H93       -70.2979   30.3933  -77.7034 H         1 UNK         0.0784 
     94 H94       -70.2863   28.7885  -78.4199 H         1 UNK         0.0784 
     95 H95       -71.4746   29.9841  -78.9376 H         1 UNK         0.0784 
     96 H96       -73.8449   28.5352  -77.6360 H         1 UNK         0.3213 
     97 H97       -74.1655   26.8312  -79.5870 H         1 UNK         0.0855 
     98 H98       -73.3458   24.1895  -78.2726 H         1 UNK         0.0814 
     99 H99       -72.8174   24.7757  -79.8428 H         1 UNK         0.0814 
    100 H100      -74.5033   24.3555  -79.5928 H         1 UNK         0.0814 
    101 H101      -75.2884   25.4089  -77.3129 H         1 UNK         0.3105 
    102 H102      -77.0381   28.0261  -75.8828 H         1 UNK         0.0547 
    103 H103      -78.5907   27.9799  -77.7747 H         1 UNK         0.0837 
    104 H104      -78.3532   26.2556  -78.0142 H         1 UNK         0.0837 
    105 H105      -79.1837   26.8402  -76.5759 H         1 UNK         0.0837 
    106 H106      -77.5732   25.2582  -75.7343 H         1 UNK         0.3020 
    107 H107      -74.8570   24.1599  -73.8181 H         1 UNK         0.1245 
    108 H108      -76.9410   23.6896  -72.2169 H         1 UNK         0.0781 
    109 H109      -77.4321   25.2971  -72.6517 H         1 UNK         0.0781 
    110 H110      -75.7714   27.0100  -69.7151 H         1 UNK         0.0836 
    111 H111      -77.2774   26.2668  -70.1946 H         1 UNK         0.0836 
    112 H112      -77.4518   23.0861  -74.4080 H         1 UNK         0.3022 
    113 H113      -76.7392   21.9283  -77.6343 H         1 UNK         0.0747 
    114 H114      -75.2178   20.2964  -76.5042 H         1 UNK         0.0793 
    115 H115      -76.3765   20.1011  -75.1965 H         1 UNK         0.0793 
    116 H116      -76.7853   19.5792  -76.8321 H         1 UNK         0.0793 
    117 H117      -78.6421   20.9568  -75.7640 H         1 UNK         0.3047 
    118 H118      -81.1855   22.6754  -77.0447 H         1 UNK         0.0822 
    119 H119      -80.6712   20.3865  -76.1891 H         1 UNK         0.0807 
    120 H120      -81.9877   21.1122  -75.2941 H         1 UNK         0.0807 
    121 H121      -80.3888   21.0349  -74.5706 H         1 UNK         0.0807 
    122 H122      -81.8821   24.1541  -75.5251 H         1 UNK         0.2946 
    123 H123      -82.2354   24.7580  -73.1011 H         1 UNK         0.1144 
    124 H124      -80.5239   24.5519  -71.3238 H         1 UNK         0.0793 
    125 H125      -81.1520   26.1909  -71.3846 H         1 UNK         0.0793 
    126 H126      -79.5667   25.8235  -72.0626 H         1 UNK         0.0793 
    127 H127      -80.6848   27.1183  -73.8491 H         1 UNK         0.2896 
@<TRIPOS>BOND
     1    1    2 1    
     2    1   67 1    
     3    1   68 1    
     4    1   69 1    
     5    2    3 2    
     6    2    4 am   BACKBONE|DICT|INTERRES
     7    4    5 1    
     8    4   70 1    
     9    5    6 1    
    10    5   65 1    
    11    5   71 1    
    12    6    7 1    
    13    6   72 1    
    14    6   73 1    
    15    7    8 1    
    16    8    9 1    
    17    8   74 1    
    18    8   75 1    
    19    9   10 ar   
    20    9   14 ar   
    21   10   11 ar   
    22   10   76 1    
    23   11   12 ar   
    24   11   48 1    
    25   12   13 ar   
    26   12   77 1    
    27   13   14 ar   
    28   13   15 1    
    29   14   78 1    
    30   15   16 1    
    31   15   79 1    
    32   15   80 1    
    33   16   17 1    
    34   17   18 1    
    35   17   81 1    
    36   17   82 1    
    37   18   19 1    
    38   18   22 1    
    39   18   83 1    
    40   19   20 am   BACKBONE|DICT|INTERRES
    41   19   21 2    
    42   20   84 1    
    43   20   85 1    
    44   22   23 am   BACKBONE|DICT|INTERRES
    45   22   86 1    
    46   23   24 2    
    47   23   25 1    
    48   25   26 1    
    49   25   27 1    
    50   25   87 1    
    51   26   88 1    
    52   26   89 1    
    53   26   90 1    
    54   27   28 am   BACKBONE|DICT|INTERRES
    55   27   91 1    
    56   28   29 2    
    57   28   30 1    
    58   30   31 1    
    59   30   32 1    
    60   30   92 1    
    61   31   93 1    
    62   31   94 1    
    63   31   95 1    
    64   32   33 am   BACKBONE|DICT|INTERRES
    65   32   96 1    
    66   33   34 2    
    67   33   35 1    
    68   35   36 1    
    69   35   37 1    
    70   35   97 1    
    71   36   98 1    
    72   36   99 1    
    73   36  100 1    
    74   37   38 am   BACKBONE|DICT|INTERRES
    75   37  101 1    
    76   38   39 2    
    77   38   40 1    
    78   40   41 1    
    79   40   42 1    
    80   40  102 1    
    81   41  103 1    
    82   41  104 1    
    83   41  105 1    
    84   42   43 am   BACKBONE|DICT|INTERRES
    85   42  106 1    
    86   43   44 2    
    87   43   45 1    
    88   45   46 1    
    89   45   49 1    
    90   45  107 1    
    91   46   47 1    
    92   46  108 1    
    93   46  109 1    
    94   47   48 1    
    95   48  110 1    
    96   48  111 1    
    97   49   50 am   BACKBONE|DICT|INTERRES
    98   49  112 1    
    99   50   51 2    
   100   50   52 1    
   101   52   53 1    
   102   52   54 1    
   103   52  113 1    
   104   53  114 1    
   105   53  115 1    
   106   53  116 1    
   107   54   55 am   BACKBONE|DICT|INTERRES
   108   54  117 1    
   109   55   56 2    
   110   55   57 1    
   111   57   58 1    
   112   57   59 1    
   113   57  118 1    
   114   58  119 1    
   115   58  120 1    
   116   58  121 1    
   117   59   60 am   BACKBONE|DICT|INTERRES
   118   59  122 1    
   119   60   61 2    
   120   60   62 1    
   121   62   63 1    
   122   62   64 1    
   123   62  123 1    
   124   63  124 1    
   125   63  125 1    
   126   63  126 1    
   127   64   65 am   BACKBONE|DICT|INTERRES
   128   64  127 1    
   129   65   66 2    
@<TRIPOS>SUBSTRUCTURE
     1 UNK         1 GROUP             0       ****    0 ROOT    
