@<TRIPOS>MOLECULE
3R135
127   129    1
SMALL
USER_CHARGES


@<TRIPOS>ATOM
      1 CA        -78.4407   30.6482  -75.7344 C.3       0 UNK        -0.1998 
      2 C         -78.8468   29.4336  -74.9137 C.2       0 UNK         0.4909 
      3 O         -78.0494   28.5090  -74.7688 O.2       0 UNK        -0.5240 
      4 N         -80.0709   29.4377  -74.3696 N.am      1 UNK        -0.4739 
      5 CA        -80.6279   28.3411  -73.5698 C.3       1 UNK         0.0864 
      6 C6        -81.8027   28.7977  -72.6607 C.3       11 UNK        -0.0881 
      7 S7        -81.4751   30.3022  -71.6772 S.3       11 UNK        -0.2682 
      8 C8        -80.7191   29.6301  -70.1602 C.3       11 UNK         0.0289 
      9 C9        -79.2990   29.1428  -70.4077 C.ar      11 UNK        -0.0687 
     10 C10       -78.9684   27.7955  -70.2302 C.ar      11 UNK        -0.0823 
     11 C11       -77.6764   27.3425  -70.5135 C.ar      11 UNK        -0.0830 
     12 C12       -76.7092   28.2511  -70.9555 C.ar      11 UNK        -0.1021 
     13 C13       -77.0273   29.5992  -71.1374 C.ar      11 UNK        -0.0753 
     14 C14       -78.3203   30.0407  -70.8465 C.ar      11 UNK        -0.0933 
     15 C15       -76.0029   30.5626  -71.7199 C.3       11 UNK         0.0166 
     16 S16       -74.4668   30.6286  -70.7448 S.3       11 UNK        -0.2615 
     17 C17       -73.5303   31.8861  -71.6842 C.3       11 UNK        -0.0865 
     18 CA        -72.4503   31.3069  -72.6413 C.3       10 UNK         0.0862 
     19 C         -71.1945   30.7203  -71.9356 C.2       10 UNK         0.5551 
     20 N         -70.4800   29.7877  -72.5557 N.am      10 UNK        -0.7319 
     21 O         -70.8442   31.1248  -70.8296 O.2       10 UNK        -0.5018 
     22 N         -73.0140   30.3979  -73.6511 N.am      10 UNK        -0.4509 
     23 C         -73.5520   30.7720  -74.8162 C.2       10 UNK         0.4899 
     24 O         -73.6908   31.9494  -75.1520 O.2       10 UNK        -0.4839 
     25 CA        -74.0205   29.6444  -75.7621 C.3       9 UNK         0.0222 
     26 CB        -74.0904   30.1048  -77.2330 C.3       9 UNK        -0.1966 
     27 N         -73.2515   28.3945  -75.6556 N.am      9 UNK        -0.4218 
     28 C         -71.9284   28.2206  -75.8158 C.2       9 UNK         0.5020 
     29 O         -71.1304   29.1348  -76.0229 O.2       9 UNK        -0.5274 
     30 CA        -71.4006   26.7808  -75.7152 C.3       8 UNK         0.0270 
     31 CB        -71.3029   26.3418  -74.2441 C.3       8 UNK        -0.1976 
     32 N         -72.2686   25.8539  -76.4425 N.am      8 UNK        -0.4313 
     33 C         -72.0009   25.3202  -77.6427 C.2       8 UNK         0.5041 
     34 O         -70.9378   25.4798  -78.2442 O.2       8 UNK        -0.5577 
     35 CA        -73.1078   24.4663  -78.2951 C.3       7 UNK         0.0284 
     36 CB        -72.9227   22.9819  -77.9422 C.3       7 UNK        -0.1958 
     37 N         -74.4563   24.8869  -77.9091 N.am      7 UNK        -0.4454 
     38 C         -75.0109   26.0633  -78.2327 C.2       7 UNK         0.5089 
     39 O         -74.5091   26.8542  -79.0312 O.2       7 UNK        -0.5125 
     40 CA        -76.3245   26.4470  -77.5252 C.3       6 UNK         0.0408 
     41 CB        -77.5127   26.3299  -78.4920 C.3       6 UNK        -0.1791 
     42 N         -76.6248   25.6821  -76.3101 N.am      6 UNK        -0.4762 
     43 C         -75.8721   25.6084  -75.2027 C.2       6 UNK         0.5007 
     44 O         -74.7627   26.1304  -75.0905 O.2       6 UNK        -0.5032 
     45 CA        -76.4433   24.7876  -74.0345 C.3       5 UNK         0.0783 
     46 C46       -77.4124   25.6719  -73.2224 C.3       11 UNK        -0.0857 
     47 S47       -78.0800   24.8707  -71.7256 S.3       11 UNK        -0.2512 
     48 C48       -77.3318   25.8638  -70.3896 C.3       11 UNK         0.0225 
     49 N         -77.0727   23.5564  -74.5177 N.am      5 UNK        -0.4615 
     50 C         -76.4082   22.4903  -74.9819 C.2       4 UNK         0.5053 
     51 O         -75.1803   22.4118  -75.0107 O.2       4 UNK        -0.5105 
     52 CA        -77.2521   21.3174  -75.5126 C.3       4 UNK         0.0263 
     53 CB        -77.5821   20.3377  -74.3750 C.3       4 UNK        -0.1981 
     54 N         -78.4957   21.7570  -76.1506 N.am      4 UNK        -0.4224 
     55 C         -78.5618   22.3691  -77.3422 C.2       3 UNK         0.4895 
     56 O         -77.5892   22.5504  -78.0749 O.2       3 UNK        -0.5091 
     57 CA        -79.9428   22.9036  -77.7727 C.3       3 UNK         0.0250 
     58 CB        -80.7166   21.8298  -78.5541 C.3       3 UNK        -0.1996 
     59 N         -80.7709   23.3949  -76.6606 N.am      3 UNK        -0.4254 
     60 C         -80.4094   24.3809  -75.8273 C.2       2 UNK         0.5004 
     61 O         -79.3274   24.9614  -75.9086 O.2       2 UNK        -0.5226 
     62 CA        -81.3803   24.7195  -74.6807 C.3       2 UNK         0.0269 
     63 CB        -81.4255   23.5697  -73.6586 C.3       2 UNK        -0.1926 
     64 N         -81.0072   25.9493  -73.9717 N.am      2 UNK        -0.4687 
     65 C         -81.0943   27.1857  -74.4809 C.2       1 UNK         0.5165 
     66 O         -81.5792   27.4346  -75.5888 O.2       1 UNK        -0.5079 
     67 H67       -78.2043   30.3472  -76.7547 H         1 UNK         0.0900 
     68 H68       -79.2315   31.3971  -75.7740 H         1 UNK         0.0900 
     69 H69       -77.5541   31.1115  -75.3020 H         1 UNK         0.0900 
     70 H70       -80.6915   30.2177  -74.5293 H         1 UNK         0.2959 
     71 H71       -79.8267   27.9616  -72.9326 H         1 UNK         0.1079 
     72 H72       -82.0933   27.9924  -71.9833 H         1 UNK         0.0837 
     73 H73       -82.6868   29.0082  -73.2664 H         1 UNK         0.0837 
     74 H74       -80.6944   30.4147  -69.4028 H         1 UNK         0.0685 
     75 H75       -81.3490   28.8346  -69.7590 H         1 UNK         0.0685 
     76 H76       -79.7210   27.0914  -69.9022 H         1 UNK         0.1434 
     77 H77       -75.7131   27.9047  -71.1954 H         1 UNK         0.1329 
     78 H78       -78.5828   31.0786  -70.9996 H         1 UNK         0.1335 
     79 H79       -75.7735   30.2498  -72.7391 H         1 UNK         0.0680 
     80 H80       -76.4207   31.5682  -71.7896 H         1 UNK         0.0680 
     81 H81       -74.2259   32.5005  -72.2575 H         1 UNK         0.1032 
     82 H82       -73.0731   32.5736  -70.9704 H         1 UNK         0.1032 
     83 H83       -72.0372   32.1630  -73.1782 H         1 UNK         0.0461 
     84 H84       -70.6923   29.5286  -73.5066 H         1 UNK         0.3453 
     85 H85       -69.6611   29.4158  -72.1008 H         1 UNK         0.3453 
     86 H86       -72.9445   29.4141  -73.4355 H         1 UNK         0.2984 
     87 H87       -75.0359   29.3955  -75.4487 H         1 UNK         0.0554 
     88 H88       -74.4602   29.3115  -77.8813 H         1 UNK         0.0847 
     89 H89       -73.1123   30.4119  -77.6048 H         1 UNK         0.0847 
     90 H90       -74.7658   30.9532  -77.3496 H         1 UNK         0.0847 
     91 H91       -73.8102   27.5705  -75.4345 H         1 UNK         0.3141 
     92 H92       -70.3939   26.7642  -76.1384 H         1 UNK         0.0743 
     93 H93       -72.2750   26.3449  -73.7494 H         1 UNK         0.0784 
     94 H94       -70.8919   25.3355  -74.1614 H         1 UNK         0.0784 
     95 H95       -70.6456   27.0047  -73.6804 H         1 UNK         0.0784 
     96 H96       -73.1871   25.6947  -76.0378 H         1 UNK         0.3213 
     97 H97       -73.0167   24.5778  -79.3778 H         1 UNK         0.0855 
     98 H98       -73.0161   22.8067  -76.8694 H         1 UNK         0.0814 
     99 H99       -71.9361   22.6292  -78.2458 H         1 UNK         0.0814 
    100 H100      -73.6595   22.3580  -78.4488 H         1 UNK         0.0814 
    101 H101      -74.9591   24.2910  -77.2661 H         1 UNK         0.3105 
    102 H102      -76.2326   27.4930  -77.2259 H         1 UNK         0.0547 
    103 H103      -77.3491   26.9272  -79.3899 H         1 UNK         0.0837 
    104 H104      -77.6709   25.2985  -78.8085 H         1 UNK         0.0837 
    105 H105      -78.4347   26.6846  -78.0304 H         1 UNK         0.0837 
    106 H106      -77.5588   25.2766  -76.2613 H         1 UNK         0.3020 
    107 H107      -75.6058   24.5133  -73.3889 H         1 UNK         0.1245 
    108 H108      -78.2569   25.9801  -73.8359 H         1 UNK         0.0781 
    109 H109      -76.9097   26.5991  -72.9562 H         1 UNK         0.0781 
    110 H110      -76.2508   25.7156  -70.3979 H         1 UNK         0.0836 
    111 H111      -77.6836   25.4882  -69.4277 H         1 UNK         0.0836 
    112 H112      -78.0797   23.5757  -74.5835 H         1 UNK         0.3022 
    113 H113      -76.6528   20.7879  -76.2567 H         1 UNK         0.0747 
    114 H114      -78.1205   19.4654  -74.7460 H         1 UNK         0.0793 
    115 H115      -76.6706   19.9749  -73.8976 H         1 UNK         0.0793 
    116 H116      -78.1912   20.8055  -73.6003 H         1 UNK         0.0793 
    117 H117      -79.3498   21.6332  -75.6272 H         1 UNK         0.3047 
    118 H118      -79.7651   23.7486  -78.4414 H         1 UNK         0.0822 
    119 H119      -80.9588   20.9692  -77.9292 H         1 UNK         0.0807 
    120 H120      -80.1308   21.4643  -79.3989 H         1 UNK         0.0807 
    121 H121      -81.6487   22.2260  -78.9575 H         1 UNK         0.0807 
    122 H122      -81.6698   22.9512  -76.5351 H         1 UNK         0.2946 
    123 H123      -82.3750   24.8583  -75.1104 H         1 UNK         0.1144 
    124 H124      -82.1156   23.7915  -72.8442 H         1 UNK         0.0793 
    125 H125      -80.4447   23.3785  -73.2208 H         1 UNK         0.0793 
    126 H126      -81.7652   22.6402  -74.1168 H         1 UNK         0.0793 
    127 H127      -80.5846   25.8253  -73.0630 H         1 UNK         0.2896 
@<TRIPOS>BOND
     1    1    2 1    
     2    1   67 1    
     3    1   68 1    
     4    1   69 1    
     5    2    3 2    
     6    2    4 am   BACKBONE|DICT|INTERRES
     7    4    5 1    
     8    4   70 1    
     9    5    6 1    
    10    5   65 1    
    11    5   71 1    
    12    6    7 1    
    13    6   72 1    
    14    6   73 1    
    15    7    8 1    
    16    8    9 1    
    17    8   74 1    
    18    8   75 1    
    19    9   10 ar   
    20    9   14 ar   
    21   10   11 ar   
    22   10   76 1    
    23   11   12 ar   
    24   11   48 1    
    25   12   13 ar   
    26   12   77 1    
    27   13   14 ar   
    28   13   15 1    
    29   14   78 1    
    30   15   16 1    
    31   15   79 1    
    32   15   80 1    
    33   16   17 1    
    34   17   18 1    
    35   17   81 1    
    36   17   82 1    
    37   18   19 1    
    38   18   22 1    
    39   18   83 1    
    40   19   20 am   BACKBONE|DICT|INTERRES
    41   19   21 2    
    42   20   84 1    
    43   20   85 1    
    44   22   23 am   BACKBONE|DICT|INTERRES
    45   22   86 1    
    46   23   24 2    
    47   23   25 1    
    48   25   26 1    
    49   25   27 1    
    50   25   87 1    
    51   26   88 1    
    52   26   89 1    
    53   26   90 1    
    54   27   28 am   BACKBONE|DICT|INTERRES
    55   27   91 1    
    56   28   29 2    
    57   28   30 1    
    58   30   31 1    
    59   30   32 1    
    60   30   92 1    
    61   31   93 1    
    62   31   94 1    
    63   31   95 1    
    64   32   33 am   BACKBONE|DICT|INTERRES
    65   32   96 1    
    66   33   34 2    
    67   33   35 1    
    68   35   36 1    
    69   35   37 1    
    70   35   97 1    
    71   36   98 1    
    72   36   99 1    
    73   36  100 1    
    74   37   38 am   BACKBONE|DICT|INTERRES
    75   37  101 1    
    76   38   39 2    
    77   38   40 1    
    78   40   41 1    
    79   40   42 1    
    80   40  102 1    
    81   41  103 1    
    82   41  104 1    
    83   41  105 1    
    84   42   43 am   BACKBONE|DICT|INTERRES
    85   42  106 1    
    86   43   44 2    
    87   43   45 1    
    88   45   46 1    
    89   45   49 1    
    90   45  107 1    
    91   46   47 1    
    92   46  108 1    
    93   46  109 1    
    94   47   48 1    
    95   48  110 1    
    96   48  111 1    
    97   49   50 am   BACKBONE|DICT|INTERRES
    98   49  112 1    
    99   50   51 2    
   100   50   52 1    
   101   52   53 1    
   102   52   54 1    
   103   52  113 1    
   104   53  114 1    
   105   53  115 1    
   106   53  116 1    
   107   54   55 am   BACKBONE|DICT|INTERRES
   108   54  117 1    
   109   55   56 2    
   110   55   57 1    
   111   57   58 1    
   112   57   59 1    
   113   57  118 1    
   114   58  119 1    
   115   58  120 1    
   116   58  121 1    
   117   59   60 am   BACKBONE|DICT|INTERRES
   118   59  122 1    
   119   60   61 2    
   120   60   62 1    
   121   62   63 1    
   122   62   64 1    
   123   62  123 1    
   124   63  124 1    
   125   63  125 1    
   126   63  126 1    
   127   64   65 am   BACKBONE|DICT|INTERRES
   128   64  127 1    
   129   65   66 2    
@<TRIPOS>SUBSTRUCTURE
     1 UNK         1 GROUP             0       ****    0 ROOT    
