@<TRIPOS>MOLECULE
3R135
127   129    1
SMALL
USER_CHARGES


@<TRIPOS>ATOM
      1 CA        -80.8463   24.8917  -72.5128 C.3       0 UNK        -0.1998 
      2 C         -81.6830   25.7815  -73.4185 C.2       0 UNK         0.4909 
      3 O         -82.7727   25.3891  -73.8381 O.2       0 UNK        -0.5240 
      4 N         -81.1775   26.9805  -73.7300 N.am      1 UNK        -0.4739 
      5 CA        -81.7872   27.9857  -74.6084 C.3       1 UNK         0.0864 
      6 C6        -81.2514   29.4149  -74.3084 C.3       11 UNK        -0.0881 
      7 S7        -79.4306   29.5176  -74.1511 S.3       11 UNK        -0.2682 
      8 C8        -79.2285   29.7053  -72.3524 C.3       11 UNK         0.0289 
      9 C9        -78.0186   28.9374  -71.8452 C.ar      11 UNK        -0.0687 
     10 C10       -78.1886   27.7857  -71.0703 C.ar      11 UNK        -0.0823 
     11 C11       -77.0798   27.1017  -70.5638 C.ar      11 UNK        -0.0830 
     12 C12       -75.7945   27.5774  -70.8365 C.ar      11 UNK        -0.1021 
     13 C13       -75.6108   28.7142  -71.6281 C.ar      11 UNK        -0.0753 
     14 C14       -76.7271   29.3906  -72.1297 C.ar      11 UNK        -0.0933 
     15 C15       -74.2064   29.1922  -71.9608 C.3       11 UNK         0.0166 
     16 S16       -73.8820   30.8584  -71.2994 S.3       11 UNK        -0.2615 
     17 C17       -72.0900   31.0294  -71.6040 C.3       11 UNK        -0.0865 
     18 CA        -71.7564   31.7413  -72.9416 C.3       10 UNK         0.0862 
     19 C         -70.2296   32.0402  -73.0290 C.2       10 UNK         0.5551 
     20 N         -69.4632   31.3738  -73.8857 N.am      10 UNK        -0.7319 
     21 O         -69.7338   32.8969  -72.3013 O.2       10 UNK        -0.5018 
     22 N         -72.2897   30.9935  -74.0882 N.am      10 UNK        -0.4509 
     23 C         -72.4014   31.4510  -75.3404 C.2       10 UNK         0.4899 
     24 O         -72.1999   32.6240  -75.6583 O.2       10 UNK        -0.4839 
     25 CA        -72.7987   30.4184  -76.4192 C.3       9 UNK         0.0222 
     26 CB        -72.1597   30.7336  -77.7876 C.3       9 UNK        -0.1966 
     27 N         -72.5420   29.0160  -76.0496 N.am      9 UNK        -0.4218 
     28 C         -71.3647   28.4647  -75.7007 C.2       9 UNK         0.5020 
     29 O         -70.3141   29.1016  -75.6078 O.2       9 UNK        -0.5274 
     30 CA        -71.3506   26.9652  -75.3466 C.3       8 UNK         0.0270 
     31 CB        -71.2945   26.7808  -73.8210 C.3       8 UNK        -0.1976 
     32 N         -72.5006   26.2315  -75.8794 N.am      8 UNK        -0.4313 
     33 C         -72.6784   25.9502  -77.1796 C.2       8 UNK         0.5041 
     34 O         -71.8342   26.1837  -78.0455 O.2       8 UNK        -0.5577 
     35 CA        -74.0236   25.3297  -77.6039 C.3       7 UNK         0.0284 
     36 CB        -73.8520   23.8330  -77.9080 C.3       7 UNK        -0.1958 
     37 N         -75.1062   25.5034  -76.6301 N.am      7 UNK        -0.4454 
     38 C         -75.6103   26.6826  -76.2302 C.2       7 UNK         0.5089 
     39 O         -75.2088   27.7714  -76.6422 O.2       7 UNK        -0.5125 
     40 CA        -76.7113   26.6453  -75.1547 C.3       6 UNK         0.0408 
     41 CB        -78.0848   26.6441  -75.8376 C.3       6 UNK        -0.1791 
     42 N         -76.6202   25.4929  -74.2516 N.am      6 UNK        -0.4762 
     43 C         -75.5493   25.1719  -73.5059 C.2       6 UNK         0.5007 
     44 O         -74.5230   25.8526  -73.4629 O.2       6 UNK        -0.5032 
     45 CA        -75.5785   23.8221  -72.7552 C.3       5 UNK         0.0783 
     46 C46       -75.7666   23.9922  -71.2267 C.3       11 UNK        -0.0857 
     47 S47       -77.4846   24.3628  -70.7186 S.3       11 UNK        -0.2512 
     48 C48       -77.2757   25.8609  -69.7065 C.3       11 UNK         0.0225 
     49 N         -76.5191   22.8421  -73.3102 N.am      5 UNK        -0.4615 
     50 C         -76.5118   22.3556  -74.5567 C.2       4 UNK         0.5053 
     51 O         -75.7024   22.7002  -75.4191 O.2       4 UNK        -0.5105 
     52 CA        -77.5985   21.3284  -74.9192 C.3       4 UNK         0.0263 
     53 CB        -78.4829   20.8831  -73.7296 C.3       4 UNK        -0.1981 
     54 N         -78.4284   21.8007  -76.0313 N.am      4 UNK        -0.4224 
     55 C         -79.2015   22.8963  -76.0568 C.2       3 UNK         0.4895 
     56 O         -79.2998   23.6991  -75.1246 O.2       3 UNK        -0.5091 
     57 CA        -80.0072   23.1161  -77.3453 C.3       3 UNK         0.0250 
     58 CB        -80.8443   21.8698  -77.7141 C.3       3 UNK        -0.1996 
     59 N         -80.8899   24.2720  -77.1911 N.am      3 UNK        -0.4254 
     60 C         -81.4621   24.9413  -78.1995 C.2       2 UNK         0.5004 
     61 O         -81.2277   24.7117  -79.3870 O.2       2 UNK        -0.5226 
     62 CA        -82.4969   26.0221  -77.8486 C.3       2 UNK         0.0269 
     63 CB        -83.9194   25.4776  -78.0633 C.3       2 UNK        -0.1926 
     64 N         -82.3868   26.5081  -76.4714 N.am      2 UNK        -0.4687 
     65 C         -81.6889   27.5874  -76.1006 C.2       1 UNK         0.5165 
     66 O         -81.0091   28.2508  -76.8854 O.2       1 UNK        -0.5079 
     67 H67       -79.8028   25.2058  -72.4982 H         1 UNK         0.0900 
     68 H68       -80.8768   23.8605  -72.8638 H         1 UNK         0.0900 
     69 H69       -81.2305   24.9183  -71.4938 H         1 UNK         0.0900 
     70 H70       -80.2645   27.2387  -73.3827 H         1 UNK         0.2959 
     71 H71       -82.8568   28.0083  -74.3864 H         1 UNK         0.1079 
     72 H72       -81.7118   29.7838  -73.3911 H         1 UNK         0.0837 
     73 H73       -81.5717   30.1204  -75.0775 H         1 UNK         0.0837 
     74 H74       -80.1246   29.3656  -71.8313 H         1 UNK         0.0685 
     75 H75       -79.1196   30.7643  -72.1139 H         1 UNK         0.0685 
     76 H76       -79.1838   27.4252  -70.8487 H         1 UNK         0.1434 
     77 H77       -74.9335   27.0540  -70.4451 H         1 UNK         0.1329 
     78 H78       -76.5906   30.2740  -72.7384 H         1 UNK         0.1335 
     79 H79       -73.4646   28.4970  -71.5648 H         1 UNK         0.0680 
     80 H80       -74.0887   29.1912  -73.0444 H         1 UNK         0.0680 
     81 H81       -71.6817   31.5977  -70.7656 H         1 UNK         0.1032 
     82 H82       -71.6101   30.0500  -71.5562 H         1 UNK         0.1032 
     83 H83       -72.2548   32.7127  -72.9336 H         1 UNK         0.0461 
     84 H84       -68.4788   31.5829  -73.9294 H         1 UNK         0.3453 
     85 H85       -69.8512   30.6539  -74.4876 H         1 UNK         0.3453 
     86 H86       -72.4659   30.0146  -73.9321 H         1 UNK         0.2984 
     87 H87       -73.8804   30.5037  -76.5318 H         1 UNK         0.0554 
     88 H88       -72.4662   30.0108  -78.5438 H         1 UNK         0.0847 
     89 H89       -71.0704   30.7231  -77.7359 H         1 UNK         0.0847 
     90 H90       -72.4589   31.7195  -78.1453 H         1 UNK         0.0847 
     91 H91       -73.3556   28.4100  -76.1097 H         1 UNK         0.3141 
     92 H92       -70.4423   26.5368  -75.7756 H         1 UNK         0.0743 
     93 H93       -70.4186   27.2757  -73.3988 H         1 UNK         0.0784 
     94 H94       -72.1733   27.1995  -73.3302 H         1 UNK         0.0784 
     95 H95       -71.2318   25.7267  -73.5504 H         1 UNK         0.0784 
     96 H96       -73.2402   26.0049  -75.2228 H         1 UNK         0.3213 
     97 H97       -74.3309   25.8323  -78.5234 H         1 UNK         0.0855 
     98 H98       -73.5353   23.2771  -77.0245 H         1 UNK         0.0814 
     99 H99       -73.0977   23.6746  -78.6800 H         1 UNK         0.0814 
    100 H100      -74.7809   23.3897  -78.2674 H         1 UNK         0.0814 
    101 H101      -75.4690   24.6554  -76.2059 H         1 UNK         0.3105 
    102 H102      -76.6234   27.5468  -74.5452 H         1 UNK         0.0547 
    103 H103      -78.2397   27.5641  -76.4028 H         1 UNK         0.0837 
    104 H104      -78.1933   25.8126  -76.5344 H         1 UNK         0.0837 
    105 H105      -78.8883   26.5727  -75.1086 H         1 UNK         0.0837 
    106 H106      -77.4087   24.8574  -74.2489 H         1 UNK         0.3020 
    107 H107      -74.5826   23.3990  -72.9064 H         1 UNK         0.1245 
    108 H108      -75.0803   24.7442  -70.8358 H         1 UNK         0.0781 
    109 H109      -75.4811   23.0643  -70.7288 H         1 UNK         0.0781 
    110 H110      -76.4407   25.7291  -69.0166 H         1 UNK         0.0836 
    111 H111      -78.1621   25.9862  -69.0827 H         1 UNK         0.0836 
    112 H112      -77.2486   22.5387  -72.6813 H         1 UNK         0.3022 
    113 H113      -77.0680   20.4467  -75.2816 H         1 UNK         0.0747 
    114 H114      -79.1952   20.1189  -74.0410 H         1 UNK         0.0793 
    115 H115      -77.8818   20.4467  -72.9307 H         1 UNK         0.0793 
    116 H116      -79.0565   21.7077  -73.3044 H         1 UNK         0.0793 
    117 H117      -78.3856   21.2341  -76.8666 H         1 UNK         0.3047 
    118 H118      -79.2919   23.3244  -78.1438 H         1 UNK         0.0822 
    119 H119      -80.2154   21.0000  -77.9049 H         1 UNK         0.0807 
    120 H120      -81.4297   22.0322  -78.6191 H         1 UNK         0.0807 
    121 H121      -81.5378   21.6044  -76.9150 H         1 UNK         0.0807 
    122 H122      -81.0632   24.5523  -76.2342 H         1 UNK         0.2946 
    123 H123      -82.3447   26.8507  -78.5446 H         1 UNK         0.1144 
    124 H124      -84.0534   25.1243  -79.0869 H         1 UNK         0.0793 
    125 H125      -84.6696   26.2488  -77.8882 H         1 UNK         0.0793 
    126 H126      -84.1362   24.6405  -77.3983 H         1 UNK         0.0793 
    127 H127      -82.8678   25.9838  -75.7460 H         1 UNK         0.2896 
@<TRIPOS>BOND
     1    1    2 1    
     2    1   67 1    
     3    1   68 1    
     4    1   69 1    
     5    2    3 2    
     6    2    4 am   BACKBONE|DICT|INTERRES
     7    4    5 1    
     8    4   70 1    
     9    5    6 1    
    10    5   65 1    
    11    5   71 1    
    12    6    7 1    
    13    6   72 1    
    14    6   73 1    
    15    7    8 1    
    16    8    9 1    
    17    8   74 1    
    18    8   75 1    
    19    9   10 ar   
    20    9   14 ar   
    21   10   11 ar   
    22   10   76 1    
    23   11   12 ar   
    24   11   48 1    
    25   12   13 ar   
    26   12   77 1    
    27   13   14 ar   
    28   13   15 1    
    29   14   78 1    
    30   15   16 1    
    31   15   79 1    
    32   15   80 1    
    33   16   17 1    
    34   17   18 1    
    35   17   81 1    
    36   17   82 1    
    37   18   19 1    
    38   18   22 1    
    39   18   83 1    
    40   19   20 am   BACKBONE|DICT|INTERRES
    41   19   21 2    
    42   20   84 1    
    43   20   85 1    
    44   22   23 am   BACKBONE|DICT|INTERRES
    45   22   86 1    
    46   23   24 2    
    47   23   25 1    
    48   25   26 1    
    49   25   27 1    
    50   25   87 1    
    51   26   88 1    
    52   26   89 1    
    53   26   90 1    
    54   27   28 am   BACKBONE|DICT|INTERRES
    55   27   91 1    
    56   28   29 2    
    57   28   30 1    
    58   30   31 1    
    59   30   32 1    
    60   30   92 1    
    61   31   93 1    
    62   31   94 1    
    63   31   95 1    
    64   32   33 am   BACKBONE|DICT|INTERRES
    65   32   96 1    
    66   33   34 2    
    67   33   35 1    
    68   35   36 1    
    69   35   37 1    
    70   35   97 1    
    71   36   98 1    
    72   36   99 1    
    73   36  100 1    
    74   37   38 am   BACKBONE|DICT|INTERRES
    75   37  101 1    
    76   38   39 2    
    77   38   40 1    
    78   40   41 1    
    79   40   42 1    
    80   40  102 1    
    81   41  103 1    
    82   41  104 1    
    83   41  105 1    
    84   42   43 am   BACKBONE|DICT|INTERRES
    85   42  106 1    
    86   43   44 2    
    87   43   45 1    
    88   45   46 1    
    89   45   49 1    
    90   45  107 1    
    91   46   47 1    
    92   46  108 1    
    93   46  109 1    
    94   47   48 1    
    95   48  110 1    
    96   48  111 1    
    97   49   50 am   BACKBONE|DICT|INTERRES
    98   49  112 1    
    99   50   51 2    
   100   50   52 1    
   101   52   53 1    
   102   52   54 1    
   103   52  113 1    
   104   53  114 1    
   105   53  115 1    
   106   53  116 1    
   107   54   55 am   BACKBONE|DICT|INTERRES
   108   54  117 1    
   109   55   56 2    
   110   55   57 1    
   111   57   58 1    
   112   57   59 1    
   113   57  118 1    
   114   58  119 1    
   115   58  120 1    
   116   58  121 1    
   117   59   60 am   BACKBONE|DICT|INTERRES
   118   59  122 1    
   119   60   61 2    
   120   60   62 1    
   121   62   63 1    
   122   62   64 1    
   123   62  123 1    
   124   63  124 1    
   125   63  125 1    
   126   63  126 1    
   127   64   65 am   BACKBONE|DICT|INTERRES
   128   64  127 1    
   129   65   66 2    
@<TRIPOS>SUBSTRUCTURE
     1 UNK         1 GROUP             0       ****    0 ROOT    
