@<TRIPOS>MOLECULE
3R135
127   129    1
SMALL
USER_CHARGES


@<TRIPOS>ATOM
      1 CA        -83.4940   28.6569  -71.4467 C.3       0 UNK        -0.1998 
      2 C         -83.1873   28.4887  -72.9276 C.2       0 UNK         0.4909 
      3 O         -84.1105   28.4136  -73.7399 O.2       0 UNK        -0.5240 
      4 N         -81.8976   28.4407  -73.2830 N.am      1 UNK        -0.4739 
      5 CA        -81.4119   28.2339  -74.6545 C.3       1 UNK         0.0864 
      6 C6        -79.9484   28.7230  -74.8557 C.3       11 UNK        -0.0881 
      7 S7        -79.6398   30.3873  -74.1608 S.3       11 UNK        -0.2682 
      8 C8        -77.8297   30.3792  -73.8893 C.3       11 UNK         0.0289 
      9 C9        -77.3008   29.5151  -72.7390 C.ar      11 UNK        -0.0687 
     10 C10       -78.1031   28.6410  -71.9966 C.ar      11 UNK        -0.0823 
     11 C11       -77.5427   27.7849  -71.0444 C.ar      11 UNK        -0.0830 
     12 C12       -76.1761   27.8611  -70.7658 C.ar      11 UNK        -0.1021 
     13 C13       -75.3663   28.7600  -71.4633 C.ar      11 UNK        -0.0753 
     14 C14       -75.9345   29.5715  -72.4509 C.ar      11 UNK        -0.0933 
     15 C15       -73.8701   28.8183  -71.1971 C.3       11 UNK         0.0166 
     16 S16       -73.3559   30.4689  -70.6238 S.3       11 UNK        -0.2615 
     17 C17       -71.5819   30.4562  -71.0516 C.3       11 UNK        -0.0865 
     18 CA        -71.2947   31.1075  -72.4335 C.3       10 UNK         0.0862 
     19 C         -69.7687   31.3230  -72.6483 C.2       10 UNK         0.5551 
     20 N         -69.1570   30.7922  -73.7019 N.am      10 UNK        -0.7319 
     21 O         -69.1273   32.0014  -71.8497 O.2       10 UNK        -0.5018 
     22 N         -71.9134   30.3413  -73.5249 N.am      10 UNK        -0.4509 
     23 C         -72.8786   30.7508  -74.3509 C.2       10 UNK         0.4899 
     24 O         -73.4065   31.8613  -74.2883 O.2       10 UNK        -0.4839 
     25 CA        -73.3681   29.7604  -75.4302 C.3       9 UNK         0.0222 
     26 CB        -72.7736   30.1315  -76.8026 C.3       9 UNK        -0.1966 
     27 N         -73.1719   28.3254  -75.1526 N.am      9 UNK        -0.4218 
     28 C         -72.0219   27.6478  -75.0028 C.2       9 UNK         0.5020 
     29 O         -70.9097   28.1760  -74.9535 O.2       9 UNK        -0.5274 
     30 CA        -72.1280   26.1207  -74.8796 C.3       8 UNK         0.0270 
     31 CB        -72.5631   25.7178  -73.4604 C.3       8 UNK        -0.1976 
     32 N         -73.0381   25.5430  -75.8712 N.am      8 UNK        -0.4313 
     33 C         -72.8276   25.5498  -77.1966 C.2       8 UNK         0.5041 
     34 O         -71.7973   25.9690  -77.7261 O.2       8 UNK        -0.5577 
     35 CA        -73.9581   25.0090  -78.0903 C.3       7 UNK         0.0284 
     36 CB        -73.8678   23.4807  -78.2160 C.3       7 UNK        -0.1958 
     37 N         -75.2907   25.4004  -77.6208 N.am      7 UNK        -0.4454 
     38 C         -75.7412   26.6640  -77.6138 C.2       7 UNK         0.5089 
     39 O         -75.1098   27.6204  -78.0621 O.2       7 UNK        -0.5125 
     40 CA        -77.1269   26.9128  -76.9950 C.3       6 UNK         0.0408 
     41 CB        -78.2154   26.7215  -78.0601 C.3       6 UNK        -0.1791 
     42 N         -77.4003   26.0734  -75.8222 N.am      6 UNK        -0.4762 
     43 C         -76.6993   26.1305  -74.6793 C.2       6 UNK         0.5007 
     44 O         -75.7803   26.9293  -74.4895 O.2       6 UNK        -0.5032 
     45 CA        -77.0101   25.0540  -73.6164 C.3       5 UNK         0.0783 
     46 C46       -78.3363   25.3077  -72.8435 C.3       11 UNK        -0.0857 
     47 S47       -78.1233   25.0665  -71.0443 S.3       11 UNK        -0.2512 
     48 C48       -78.4105   26.7372  -70.3633 C.3       11 UNK         0.0225 
     49 N         -77.0013   23.7195  -74.2198 N.am      5 UNK        -0.4615 
     50 C         -75.9237   23.1129  -74.7315 C.2       4 UNK         0.5053 
     51 O         -74.7935   23.5954  -74.7044 O.2       4 UNK        -0.5105 
     52 CA        -76.1401   21.7499  -75.4113 C.3       4 UNK         0.0263 
     53 CB        -75.8842   20.6098  -74.4131 C.3       4 UNK        -0.1981 
     54 N         -77.4721   21.5902  -75.9993 N.am      4 UNK        -0.4224 
     55 C         -77.9687   22.3166  -77.0114 C.2       3 UNK         0.4895 
     56 O         -77.3343   23.2022  -77.5891 O.2       3 UNK        -0.5091 
     57 CA        -79.4193   22.0073  -77.4475 C.3       3 UNK         0.0250 
     58 CB        -80.1443   20.9904  -76.5351 C.3       3 UNK        -0.1996 
     59 N         -80.2691   23.1968  -77.6057 N.am      3 UNK        -0.4254 
     60 C         -80.4215   24.2158  -76.7458 C.2       2 UNK         0.5004 
     61 O         -79.7288   24.3700  -75.7386 O.2       2 UNK        -0.5226 
     62 CA        -81.5439   25.2168  -77.0981 C.3       2 UNK         0.0269 
     63 CB        -82.9335   24.5748  -76.9002 C.3       2 UNK        -0.1926 
     64 N         -81.4690   26.5096  -76.3947 N.am      2 UNK        -0.4687 
     65 C         -81.5718   26.7545  -75.0785 C.2       1 UNK         0.5165 
     66 O         -81.7728   25.8877  -74.2229 O.2       1 UNK        -0.5079 
     67 H67       -82.5865   28.7289  -70.8474 H         1 UNK         0.0900 
     68 H68       -84.0723   27.8070  -71.0853 H         1 UNK         0.0900 
     69 H69       -84.0794   29.5617  -71.2850 H         1 UNK         0.0900 
     70 H70       -81.1870   28.5065  -72.5720 H         1 UNK         0.2959 
     71 H71       -82.0495   28.8273  -75.3142 H         1 UNK         0.1079 
     72 H72       -79.2383   28.0156  -74.4308 H         1 UNK         0.0837 
     73 H73       -79.7101   28.7655  -75.9195 H         1 UNK         0.0837 
     74 H74       -77.5182   31.4102  -73.7153 H         1 UNK         0.0685 
     75 H75       -77.3434   30.0642  -74.8140 H         1 UNK         0.0685 
     76 H76       -79.1616   28.5768  -72.1870 H         1 UNK         0.1434 
     77 H77       -75.7421   27.1991  -70.0289 H         1 UNK         0.1329 
     78 H78       -75.3035   30.2475  -73.0080 H         1 UNK         0.1335 
     79 H79       -73.5731   28.0778  -70.4530 H         1 UNK         0.0680 
     80 H80       -73.3489   28.5546  -72.1166 H         1 UNK         0.0680 
     81 H81       -71.0618   30.9987  -70.2597 H         1 UNK         0.1032 
     82 H82       -71.1977   29.4350  -71.0155 H         1 UNK         0.1032 
     83 H83       -71.7191   32.1129  -72.4196 H         1 UNK         0.0461 
     84 H84       -69.6645   30.2251  -74.3646 H         1 UNK         0.3453 
     85 H85       -68.1693   30.9490  -73.8273 H         1 UNK         0.3453 
     86 H86       -71.4867   29.4438  -73.7349 H         1 UNK         0.2984 
     87 H87       -74.4496   29.8905  -75.4953 H         1 UNK         0.0554 
     88 H88       -73.1736   29.4962  -77.5927 H         1 UNK         0.0847 
     89 H89       -71.6875   30.0354  -76.8149 H         1 UNK         0.0847 
     90 H90       -73.0110   31.1631  -77.0658 H         1 UNK         0.0847 
     91 H91       -74.0323   27.7864  -75.0889 H         1 UNK         0.3141 
     92 H92       -71.1346   25.7044  -75.0594 H         1 UNK         0.0743 
     93 H93       -71.8880   26.1339  -72.7115 H         1 UNK         0.0784 
     94 H94       -73.5680   26.0700  -73.2256 H         1 UNK         0.0784 
     95 H95       -72.5539   24.6346  -73.3377 H         1 UNK         0.0784 
     96 H96       -73.8750   25.0904  -75.5120 H         1 UNK         0.3213 
     97 H97       -73.8258   25.4358  -79.0870 H         1 UNK         0.0855 
     98 H98       -73.8735   22.9963  -77.2408 H         1 UNK         0.0814 
     99 H99       -72.9409   23.1899  -78.7120 H         1 UNK         0.0814 
    100 H100      -74.6923   23.0753  -78.8029 H         1 UNK         0.0814 
    101 H101      -75.9157   24.6623  -77.3120 H         1 UNK         0.3105 
    102 H102      -77.1555   27.9541  -76.6667 H         1 UNK         0.0547 
    103 H103      -79.1853   27.0485  -77.6958 H         1 UNK         0.0837 
    104 H104      -77.9973   27.3121  -78.9511 H         1 UNK         0.0837 
    105 H105      -78.2972   25.6805  -78.3738 H         1 UNK         0.0837 
    106 H106      -78.1386   25.3762  -75.9010 H         1 UNK         0.3020 
    107 H107      -76.1748   25.0978  -72.9130 H         1 UNK         0.1245 
    108 H108      -79.1247   24.6312  -73.1768 H         1 UNK         0.0781 
    109 H109      -78.7434   26.2973  -73.0328 H         1 UNK         0.0781 
    110 H110      -78.1996   26.7270  -69.2930 H         1 UNK         0.0836 
    111 H111      -79.4686   26.9845  -70.4625 H         1 UNK         0.0836 
    112 H112      -77.9034   23.2810  -74.3392 H         1 UNK         0.3022 
    113 H113      -75.4130   21.6604  -76.2190 H         1 UNK         0.0747 
    114 H114      -75.9489   19.6351  -74.8971 H         1 UNK         0.0793 
    115 H115      -74.8856   20.6883  -73.9804 H         1 UNK         0.0793 
    116 H116      -76.5983   20.6254  -73.5886 H         1 UNK         0.0793 
    117 H117      -78.0661   20.8857  -75.5864 H         1 UNK         0.3047 
    118 H118      -79.3362   21.5594  -78.4388 H         1 UNK         0.0822 
    119 H119      -79.6211   20.0339  -76.4991 H         1 UNK         0.0807 
    120 H120      -81.1473   20.7801  -76.9073 H         1 UNK         0.0807 
    121 H121      -80.2485   21.3611  -75.5142 H         1 UNK         0.0807 
    122 H122      -80.8447   23.1950  -78.4361 H         1 UNK         0.2946 
    123 H123      -81.4315   25.4524  -78.1580 H         1 UNK         0.1144 
    124 H124      -83.0590   23.6954  -77.5328 H         1 UNK         0.0793 
    125 H125      -83.7323   25.2706  -77.1572 H         1 UNK         0.0793 
    126 H126      -83.0894   24.2531  -75.8699 H         1 UNK         0.0793 
    127 H127      -81.3064   27.3027  -76.9990 H         1 UNK         0.2896 
@<TRIPOS>BOND
     1    1    2 1    
     2    1   67 1    
     3    1   68 1    
     4    1   69 1    
     5    2    3 2    
     6    2    4 am   BACKBONE|DICT|INTERRES
     7    4    5 1    
     8    4   70 1    
     9    5    6 1    
    10    5   65 1    
    11    5   71 1    
    12    6    7 1    
    13    6   72 1    
    14    6   73 1    
    15    7    8 1    
    16    8    9 1    
    17    8   74 1    
    18    8   75 1    
    19    9   10 ar   
    20    9   14 ar   
    21   10   11 ar   
    22   10   76 1    
    23   11   12 ar   
    24   11   48 1    
    25   12   13 ar   
    26   12   77 1    
    27   13   14 ar   
    28   13   15 1    
    29   14   78 1    
    30   15   16 1    
    31   15   79 1    
    32   15   80 1    
    33   16   17 1    
    34   17   18 1    
    35   17   81 1    
    36   17   82 1    
    37   18   19 1    
    38   18   22 1    
    39   18   83 1    
    40   19   20 am   BACKBONE|DICT|INTERRES
    41   19   21 2    
    42   20   84 1    
    43   20   85 1    
    44   22   23 am   BACKBONE|DICT|INTERRES
    45   22   86 1    
    46   23   24 2    
    47   23   25 1    
    48   25   26 1    
    49   25   27 1    
    50   25   87 1    
    51   26   88 1    
    52   26   89 1    
    53   26   90 1    
    54   27   28 am   BACKBONE|DICT|INTERRES
    55   27   91 1    
    56   28   29 2    
    57   28   30 1    
    58   30   31 1    
    59   30   32 1    
    60   30   92 1    
    61   31   93 1    
    62   31   94 1    
    63   31   95 1    
    64   32   33 am   BACKBONE|DICT|INTERRES
    65   32   96 1    
    66   33   34 2    
    67   33   35 1    
    68   35   36 1    
    69   35   37 1    
    70   35   97 1    
    71   36   98 1    
    72   36   99 1    
    73   36  100 1    
    74   37   38 am   BACKBONE|DICT|INTERRES
    75   37  101 1    
    76   38   39 2    
    77   38   40 1    
    78   40   41 1    
    79   40   42 1    
    80   40  102 1    
    81   41  103 1    
    82   41  104 1    
    83   41  105 1    
    84   42   43 am   BACKBONE|DICT|INTERRES
    85   42  106 1    
    86   43   44 2    
    87   43   45 1    
    88   45   46 1    
    89   45   49 1    
    90   45  107 1    
    91   46   47 1    
    92   46  108 1    
    93   46  109 1    
    94   47   48 1    
    95   48  110 1    
    96   48  111 1    
    97   49   50 am   BACKBONE|DICT|INTERRES
    98   49  112 1    
    99   50   51 2    
   100   50   52 1    
   101   52   53 1    
   102   52   54 1    
   103   52  113 1    
   104   53  114 1    
   105   53  115 1    
   106   53  116 1    
   107   54   55 am   BACKBONE|DICT|INTERRES
   108   54  117 1    
   109   55   56 2    
   110   55   57 1    
   111   57   58 1    
   112   57   59 1    
   113   57  118 1    
   114   58  119 1    
   115   58  120 1    
   116   58  121 1    
   117   59   60 am   BACKBONE|DICT|INTERRES
   118   59  122 1    
   119   60   61 2    
   120   60   62 1    
   121   62   63 1    
   122   62   64 1    
   123   62  123 1    
   124   63  124 1    
   125   63  125 1    
   126   63  126 1    
   127   64   65 am   BACKBONE|DICT|INTERRES
   128   64  127 1    
   129   65   66 2    
@<TRIPOS>SUBSTRUCTURE
     1 UNK         1 GROUP             0       ****    0 ROOT    
