@<TRIPOS>MOLECULE
3R135
127   129    1
SMALL
USER_CHARGES


@<TRIPOS>ATOM
      1 CA        -84.5499   24.6674  -72.6159 C.3       0 UNK        -0.1998 
      2 C         -83.9045   25.8124  -73.3826 C.2       0 UNK         0.4909 
      3 O         -84.5539   26.4207  -74.2345 O.2       0 UNK        -0.5240 
      4 N         -82.6350   26.1121  -73.0785 N.am      1 UNK        -0.4739 
      5 CA        -81.8179   27.1148  -73.7714 C.3       1 UNK         0.0864 
      6 C6        -80.7232   27.6957  -72.8335 C.3       11 UNK        -0.0881 
      7 S7        -80.4190   29.4650  -73.1637 S.3       11 UNK        -0.2682 
      8 C8        -79.5624   29.9779  -71.6428 C.3       11 UNK         0.0289 
      9 C9        -78.1179   29.5039  -71.6352 C.ar      11 UNK        -0.0687 
     10 C10       -77.7617   28.3218  -70.9800 C.ar      11 UNK        -0.0823 
     11 C11       -76.4338   27.8827  -70.9828 C.ar      11 UNK        -0.0830 
     12 C12       -75.4590   28.6410  -71.6391 C.ar      11 UNK        -0.1021 
     13 C13       -75.8060   29.8213  -72.3020 C.ar      11 UNK        -0.0753 
     14 C14       -77.1359   30.2498  -72.2927 C.ar      11 UNK        -0.0933 
     15 C15       -74.7592   30.6175  -73.0633 C.3       11 UNK         0.0166 
     16 S16       -74.0322   31.9370  -72.0468 S.3       11 UNK        -0.2615 
     17 C17       -72.6169   31.0696  -71.2871 C.3       11 UNK        -0.0865 
     18 CA        -71.2671   31.4159  -71.9764 C.3       10 UNK         0.0862 
     19 C         -70.0483   30.9005  -71.1554 C.2       10 UNK         0.5551 
     20 N         -69.0366   30.2991  -71.7709 N.am      10 UNK        -0.7319 
     21 O         -70.0074   31.0628  -69.9382 O.2       10 UNK        -0.5018 
     22 N         -71.2352   30.9747  -73.3849 N.am      10 UNK        -0.4509 
     23 C         -71.1520   31.7796  -74.4527 C.2       10 UNK         0.4899 
     24 O         -71.1424   33.0093  -74.3852 O.2       10 UNK        -0.4839 
     25 CA        -71.0288   31.1185  -75.8405 C.3       9 UNK         0.0222 
     26 CB        -69.6353   31.3847  -76.4363 C.3       9 UNK        -0.1966 
     27 N         -71.2687   29.6710  -75.8339 N.am      9 UNK        -0.4218 
     28 C         -72.4758   29.0957  -75.9103 C.2       9 UNK         0.5020 
     29 O         -73.5348   29.7233  -75.9818 O.2       9 UNK        -0.5274 
     30 CA        -72.4864   27.5563  -75.8487 C.3       8 UNK         0.0270 
     31 CB        -72.4112   27.0853  -74.3855 C.3       8 UNK        -0.1976 
     32 N         -73.6653   26.9534  -76.4779 N.am      8 UNK        -0.4313 
     33 C         -74.0120   27.0775  -77.7685 C.2       8 UNK         0.5041 
     34 O         -73.3347   27.6794  -78.6055 O.2       8 UNK        -0.5577 
     35 CA        -75.3320   26.3969  -78.1906 C.3       7 UNK         0.0284 
     36 CB        -75.5273   26.3279  -79.7200 C.3       7 UNK        -0.1958 
     37 N         -75.5107   25.0736  -77.5829 N.am      7 UNK        -0.4454 
     38 C         -74.6921   24.0148  -77.6871 C.2       7 UNK         0.5089 
     39 O         -73.7011   23.9865  -78.4187 O.2       7 UNK        -0.5125 
     40 CA        -75.0285   22.7761  -76.8281 C.3       6 UNK         0.0408 
     41 CB        -73.7602   22.0086  -76.3998 C.3       6 UNK        -0.1791 
     42 N         -75.8734   23.0421  -75.6546 N.am      6 UNK        -0.4762 
     43 C         -75.6265   23.8854  -74.6358 C.2       6 UNK         0.5007 
     44 O         -74.6467   24.6303  -74.6059 O.2       6 UNK        -0.5032 
     45 CA        -76.6640   23.9182  -73.4892 C.3       5 UNK         0.0783 
     46 C46       -76.6868   25.2570  -72.7085 C.3       11 UNK        -0.0857 
     47 S47       -75.3677   25.3551  -71.4502 S.3       11 UNK        -0.2512 
     48 C48       -76.0566   26.5799  -70.2900 C.3       11 UNK         0.0225 
     49 N         -77.9879   23.5975  -74.0237 N.am      5 UNK        -0.4615 
     50 C         -78.7359   22.5421  -73.6765 C.2       4 UNK         0.5053 
     51 O         -78.4440   21.7655  -72.7674 O.2       4 UNK        -0.5105 
     52 CA        -80.0148   22.2843  -74.4984 C.3       4 UNK         0.0263 
     53 CB        -81.2538   22.7459  -73.7171 C.3       4 UNK        -0.1981 
     54 N         -79.9930   22.9245  -75.8203 N.am      4 UNK        -0.4224 
     55 C         -79.1619   22.5629  -76.8120 C.2       3 UNK         0.4895 
     56 O         -78.3886   21.6083  -76.7298 O.2       3 UNK        -0.5091 
     57 CA        -79.1252   23.4284  -78.0853 C.3       3 UNK         0.0250 
     58 CB        -79.9589   22.7772  -79.1997 C.3       3 UNK        -0.1996 
     59 N         -79.5675   24.8131  -77.9006 N.am      3 UNK        -0.4254 
     60 C         -79.0258   25.7102  -77.0649 C.2       2 UNK         0.5004 
     61 O         -78.0708   25.4639  -76.3250 O.2       2 UNK        -0.5226 
     62 CA        -79.6815   27.1040  -77.0089 C.3       2 UNK         0.0269 
     63 CB        -80.6558   27.3873  -78.1746 C.3       2 UNK        -0.1926 
     64 N         -80.3543   27.3539  -75.7277 N.am      2 UNK        -0.4687 
     65 C         -81.2416   26.5664  -75.1003 C.2       1 UNK         0.5165 
     66 O         -81.5928   25.4621  -75.5279 O.2       1 UNK        -0.5079 
     67 H67       -83.8695   24.2302  -71.8853 H         1 UNK         0.0900 
     68 H68       -84.8552   23.8812  -73.3059 H         1 UNK         0.0900 
     69 H69       -85.4347   25.0204  -72.0869 H         1 UNK         0.0900 
     70 H70       -82.1564   25.5667  -72.3769 H         1 UNK         0.2959 
     71 H71       -82.4912   27.9278  -74.0537 H         1 UNK         0.1079 
     72 H72       -81.0433   27.6171  -71.7931 H         1 UNK         0.0837 
     73 H73       -79.7868   27.1369  -72.8979 H         1 UNK         0.0837 
     74 H74       -79.5888   31.0666  -71.5760 H         1 UNK         0.0685 
     75 H75       -80.0987   29.6082  -70.7675 H         1 UNK         0.0685 
     76 H76       -78.5217   27.7399  -70.4767 H         1 UNK         0.1434 
     77 H77       -74.4351   28.2946  -71.6521 H         1 UNK         0.1329 
     78 H78       -77.4098   31.1600  -72.8087 H         1 UNK         0.1335 
     79 H79       -75.2080   31.0636  -73.9522 H         1 UNK         0.0680 
     80 H80       -73.9731   29.9546  -73.4227 H         1 UNK         0.0680 
     81 H81       -72.7845   29.9922  -71.2868 H         1 UNK         0.1032 
     82 H82       -72.5974   31.3658  -70.2366 H         1 UNK         0.1032 
     83 H83       -71.1630   32.5017  -71.9408 H         1 UNK         0.0461 
     84 H84       -69.0279   30.1989  -72.7725 H         1 UNK         0.3453 
     85 H85       -68.2521   29.9771  -71.2259 H         1 UNK         0.3453 
     86 H86       -71.2268   29.9773  -73.5324 H         1 UNK         0.2984 
     87 H87       -71.7665   31.5947  -76.4900 H         1 UNK         0.0554 
     88 H88       -69.5512   30.9817  -77.4458 H         1 UNK         0.0847 
     89 H89       -68.8429   30.9435  -75.8304 H         1 UNK         0.0847 
     90 H90       -69.4351   32.4552  -76.5022 H         1 UNK         0.0847 
     91 H91       -70.4516   29.0787  -75.7812 H         1 UNK         0.3141 
     92 H92       -71.6088   27.1865  -76.3828 H         1 UNK         0.0743 
     93 H93       -73.3020   27.3715  -73.8242 H         1 UNK         0.0784 
     94 H94       -72.3161   26.0009  -74.3247 H         1 UNK         0.0784 
     95 H95       -71.5480   27.5087  -73.8710 H         1 UNK         0.0784 
     96 H96       -74.2499   26.3861  -75.8746 H         1 UNK         0.3213 
     97 H97       -76.1286   27.0248  -77.7889 H         1 UNK         0.0855 
     98 H98       -75.5173   27.3258  -80.1600 H         1 UNK         0.0814 
     99 H99       -76.4827   25.8705  -79.9772 H         1 UNK         0.0814 
    100 H100      -74.7375   25.7525  -80.2037 H         1 UNK         0.0814 
    101 H101      -76.3077   24.9974  -76.9557 H         1 UNK         0.3105 
    102 H102      -75.6114   22.1168  -77.4726 H         1 UNK         0.0547 
    103 H103      -73.1907   21.6714  -77.2666 H         1 UNK         0.0837 
    104 H104      -73.0975   22.6313  -75.7977 H         1 UNK         0.0837 
    105 H105      -74.0097   21.1223  -75.8168 H         1 UNK         0.0837 
    106 H106      -76.7293   22.4999  -75.6211 H         1 UNK         0.3020 
    107 H107      -76.3560   23.1288  -72.7998 H         1 UNK         0.1245 
    108 H108      -77.6396   25.3599  -72.1865 H         1 UNK         0.0781 
    109 H109      -76.6213   26.1156  -73.3804 H         1 UNK         0.0781 
    110 H110      -75.3188   26.7879  -69.5140 H         1 UNK         0.0836 
    111 H111      -76.9184   26.1412  -69.7846 H         1 UNK         0.0836 
    112 H112      -78.2848   24.1814  -74.8002 H         1 UNK         0.3022 
    113 H113      -80.0940   21.2061  -74.6526 H         1 UNK         0.0747 
    114 H114      -82.1684   22.6091  -74.2945 H         1 UNK         0.0793 
    115 H115      -81.3639   22.1787  -72.7919 H         1 UNK         0.0793 
    116 H116      -81.1799   23.7972  -73.4445 H         1 UNK         0.0793 
    117 H117      -80.5842   23.7426  -75.9404 H         1 UNK         0.3047 
    118 H118      -78.0849   23.4644  -78.4155 H         1 UNK         0.0822 
    119 H119      -79.8576   23.3186  -80.1406 H         1 UNK         0.0807 
    120 H120      -81.0185   22.7422  -78.9429 H         1 UNK         0.0807 
    121 H121      -79.6339   21.7518  -79.3829 H         1 UNK         0.0807 
    122 H122      -80.3737   25.1002  -78.4364 H         1 UNK         0.2946 
    123 H123      -78.8613   27.8205  -77.0797 H         1 UNK         0.1144 
    124 H124      -80.1733   27.2391  -79.1419 H         1 UNK         0.0793 
    125 H125      -80.9987   28.4218  -78.1495 H         1 UNK         0.0793 
    126 H126      -81.5415   26.7516  -78.1381 H         1 UNK         0.0793 
    127 H127      -80.1003   28.2176  -75.2640 H         1 UNK         0.2896 
@<TRIPOS>BOND
     1    1    2 1    
     2    1   67 1    
     3    1   68 1    
     4    1   69 1    
     5    2    3 2    
     6    2    4 am   BACKBONE|DICT|INTERRES
     7    4    5 1    
     8    4   70 1    
     9    5    6 1    
    10    5   65 1    
    11    5   71 1    
    12    6    7 1    
    13    6   72 1    
    14    6   73 1    
    15    7    8 1    
    16    8    9 1    
    17    8   74 1    
    18    8   75 1    
    19    9   10 ar   
    20    9   14 ar   
    21   10   11 ar   
    22   10   76 1    
    23   11   12 ar   
    24   11   48 1    
    25   12   13 ar   
    26   12   77 1    
    27   13   14 ar   
    28   13   15 1    
    29   14   78 1    
    30   15   16 1    
    31   15   79 1    
    32   15   80 1    
    33   16   17 1    
    34   17   18 1    
    35   17   81 1    
    36   17   82 1    
    37   18   19 1    
    38   18   22 1    
    39   18   83 1    
    40   19   20 am   BACKBONE|DICT|INTERRES
    41   19   21 2    
    42   20   84 1    
    43   20   85 1    
    44   22   23 am   BACKBONE|DICT|INTERRES
    45   22   86 1    
    46   23   24 2    
    47   23   25 1    
    48   25   26 1    
    49   25   27 1    
    50   25   87 1    
    51   26   88 1    
    52   26   89 1    
    53   26   90 1    
    54   27   28 am   BACKBONE|DICT|INTERRES
    55   27   91 1    
    56   28   29 2    
    57   28   30 1    
    58   30   31 1    
    59   30   32 1    
    60   30   92 1    
    61   31   93 1    
    62   31   94 1    
    63   31   95 1    
    64   32   33 am   BACKBONE|DICT|INTERRES
    65   32   96 1    
    66   33   34 2    
    67   33   35 1    
    68   35   36 1    
    69   35   37 1    
    70   35   97 1    
    71   36   98 1    
    72   36   99 1    
    73   36  100 1    
    74   37   38 am   BACKBONE|DICT|INTERRES
    75   37  101 1    
    76   38   39 2    
    77   38   40 1    
    78   40   41 1    
    79   40   42 1    
    80   40  102 1    
    81   41  103 1    
    82   41  104 1    
    83   41  105 1    
    84   42   43 am   BACKBONE|DICT|INTERRES
    85   42  106 1    
    86   43   44 2    
    87   43   45 1    
    88   45   46 1    
    89   45   49 1    
    90   45  107 1    
    91   46   47 1    
    92   46  108 1    
    93   46  109 1    
    94   47   48 1    
    95   48  110 1    
    96   48  111 1    
    97   49   50 am   BACKBONE|DICT|INTERRES
    98   49  112 1    
    99   50   51 2    
   100   50   52 1    
   101   52   53 1    
   102   52   54 1    
   103   52  113 1    
   104   53  114 1    
   105   53  115 1    
   106   53  116 1    
   107   54   55 am   BACKBONE|DICT|INTERRES
   108   54  117 1    
   109   55   56 2    
   110   55   57 1    
   111   57   58 1    
   112   57   59 1    
   113   57  118 1    
   114   58  119 1    
   115   58  120 1    
   116   58  121 1    
   117   59   60 am   BACKBONE|DICT|INTERRES
   118   59  122 1    
   119   60   61 2    
   120   60   62 1    
   121   62   63 1    
   122   62   64 1    
   123   62  123 1    
   124   63  124 1    
   125   63  125 1    
   126   63  126 1    
   127   64   65 am   BACKBONE|DICT|INTERRES
   128   64  127 1    
   129   65   66 2    
@<TRIPOS>SUBSTRUCTURE
     1 UNK         1 GROUP             0       ****    0 ROOT    
