@<TRIPOS>MOLECULE
3R135
127   129    1
SMALL
USER_CHARGES


@<TRIPOS>ATOM
      1 CA        -78.7471   31.8688  -75.0401 C.3       0 UNK        -0.1998 
      2 C         -79.1302   30.5527  -74.3797 C.2       0 UNK         0.4909 
      3 O         -78.3347   29.6149  -74.3704 O.2       0 UNK        -0.5240 
      4 N         -80.3407   30.4752  -73.8176 N.am      1 UNK        -0.4739 
      5 CA        -80.8601   29.2900  -73.1309 C.3       1 UNK         0.0864 
      6 C6        -82.0201   29.6401  -72.1628 C.3       11 UNK        -0.0881 
      7 S7        -81.5647   30.9344  -70.9572 S.3       11 UNK        -0.2682 
      8 C8        -81.0496   29.9493  -69.5170 C.3       11 UNK         0.0289 
      9 C9        -79.7801   29.1527  -69.7855 C.ar      11 UNK        -0.0687 
     10 C10       -79.8382   27.7608  -69.9170 C.ar      11 UNK        -0.0823 
     11 C11       -78.6716   27.0171  -70.1192 C.ar      11 UNK        -0.0830 
     12 C12       -77.4429   27.6802  -70.1790 C.ar      11 UNK        -0.1021 
     13 C13       -77.3719   29.0723  -70.0873 C.ar      11 UNK        -0.0753 
     14 C14       -78.5454   29.8049  -69.8846 C.ar      11 UNK        -0.0933 
     15 C15       -76.0165   29.7637  -70.1655 C.3       11 UNK         0.0166 
     16 S16       -75.1590   29.4231  -71.7398 S.3       11 UNK        -0.2615 
     17 C17       -75.4386   30.9750  -72.6623 C.3       11 UNK        -0.0865 
     18 CA        -74.8245   30.9781  -74.0902 C.3       10 UNK         0.0862 
     19 C         -73.2672   30.8860  -74.0702 C.2       10 UNK         0.5551 
     20 N         -72.6468   29.8530  -74.6312 N.am      10 UNK        -0.7319 
     21 O         -72.6108   31.7814  -73.5435 O.2       10 UNK        -0.5018 
     22 N         -75.4985   30.0088  -74.9648 N.am      10 UNK        -0.4509 
     23 C         -75.4270   29.9905  -76.2991 C.2       10 UNK         0.4899 
     24 O         -74.8555   30.8476  -76.9766 O.2       10 UNK        -0.4839 
     25 CA        -76.0920   28.7931  -76.9988 C.3       9 UNK         0.0222 
     26 CB        -77.3171   29.2342  -77.8173 C.3       9 UNK        -0.1966 
     27 N         -75.1452   28.1006  -77.8768 N.am      9 UNK        -0.4218 
     28 C         -74.0223   27.4998  -77.4626 C.2       9 UNK         0.5020 
     29 O         -73.6577   27.4490  -76.2825 O.2       9 UNK        -0.5274 
     30 CA        -73.1483   26.8635  -78.5498 C.3       8 UNK         0.0270 
     31 CB        -72.3609   27.9318  -79.3317 C.3       8 UNK        -0.1976 
     32 N         -72.2290   25.9500  -77.8854 N.am      8 UNK        -0.4313 
     33 C         -71.5954   24.9045  -78.4258 C.2       8 UNK         0.5041 
     34 O         -71.6517   24.6099  -79.6206 O.2       8 UNK        -0.5577 
     35 CA        -70.7504   24.0370  -77.4710 C.3       7 UNK         0.0284 
     36 CB        -69.2629   24.4112  -77.5801 C.3       7 UNK        -0.1958 
     37 N         -71.1739   24.1462  -76.0692 N.am      7 UNK        -0.4454 
     38 C         -72.3024   23.6155  -75.5784 C.2       7 UNK         0.5089 
     39 O         -73.0461   22.8832  -76.2331 O.2       7 UNK        -0.5125 
     40 CA        -72.6669   23.9543  -74.1236 C.3       6 UNK         0.0408 
     41 CB        -72.1330   25.3242  -73.6458 C.3       6 UNK        -0.1791 
     42 N         -74.1209   23.9011  -73.9798 N.am      6 UNK        -0.4762 
     43 C         -74.7811   23.7079  -72.8322 C.2       6 UNK         0.5007 
     44 O         -74.2187   23.5527  -71.7468 O.2       6 UNK        -0.5032 
     45 CA        -76.3251   23.6933  -72.8799 C.3       5 UNK         0.0783 
     46 C46       -76.8833   25.0335  -72.3450 C.3       11 UNK        -0.0857 
     47 S47       -78.6737   24.9636  -71.9926 S.3       11 UNK        -0.2512 
     48 C48       -78.7381   25.5002  -70.2507 C.3       11 UNK         0.0225 
     49 N         -76.8641   23.3581  -74.2051 N.am      5 UNK        -0.4615 
     50 C         -76.7888   22.1376  -74.7583 C.2       4 UNK         0.5053 
     51 O         -76.2431   21.1820  -74.2051 O.2       4 UNK        -0.5105 
     52 CA        -77.4421   21.9109  -76.1360 C.3       4 UNK         0.0263 
     53 CB        -78.6681   20.9913  -76.0024 C.3       4 UNK        -0.1981 
     54 N         -77.8542   23.1400  -76.8138 N.am      4 UNK        -0.4224 
     55 C         -77.0312   24.0052  -77.4212 C.2       3 UNK         0.4895 
     56 O         -75.8154   23.8493  -77.5127 O.2       3 UNK        -0.5091 
     57 CA        -77.6706   25.2747  -78.0118 C.3       3 UNK         0.0250 
     58 CB        -77.8775   25.1271  -79.5273 C.3       3 UNK        -0.1996 
     59 N         -78.9390   25.6579  -77.3788 N.am      3 UNK        -0.4254 
     60 C         -79.0542   26.0341  -76.0984 C.2       2 UNK         0.5004 
     61 O         -78.1055   26.0725  -75.3123 O.2       2 UNK        -0.5226 
     62 CA        -80.4629   26.3696  -75.6026 C.3       2 UNK         0.0269 
     63 CB        -81.1864   25.1068  -75.1004 C.3       2 UNK        -0.1926 
     64 N         -80.3411   27.3449  -74.5259 N.am      2 UNK        -0.4687 
     65 C         -81.2744   28.2328  -74.1730 C.2       1 UNK         0.5165 
     66 O         -82.4021   28.2710  -74.6707 O.2       1 UNK        -0.5079 
     67 H67       -78.7233   31.7561  -76.1231 H         1 UNK         0.0900 
     68 H68       -77.7575   32.1821  -74.7097 H         1 UNK         0.0900 
     69 H69       -79.4510   32.6641  -74.7958 H         1 UNK         0.0900 
     70 H70       -80.9655   31.2677  -73.8529 H         1 UNK         0.2959 
     71 H71       -80.0497   28.8636  -72.5359 H         1 UNK         0.1079 
     72 H72       -82.3551   28.7491  -71.6286 H         1 UNK         0.0837 
     73 H73       -82.8878   30.0026  -72.7174 H         1 UNK         0.0837 
     74 H74       -80.8758   30.6229  -68.6767 H         1 UNK         0.0685 
     75 H75       -81.8682   29.2937  -69.2157 H         1 UNK         0.0685 
     76 H76       -80.7917   27.2543  -69.8528 H         1 UNK         0.1434 
     77 H77       -76.5280   27.1221  -70.3059 H         1 UNK         0.1329 
     78 H78       -78.5017   30.8816  -69.7930 H         1 UNK         0.1335 
     79 H79       -75.3942   29.3995  -69.3470 H         1 UNK         0.0680 
     80 H80       -76.1144   30.8402  -70.0172 H         1 UNK         0.0680 
     81 H81       -75.0335   31.8050  -72.0804 H         1 UNK         0.1032 
     82 H82       -76.5136   31.1507  -72.7192 H         1 UNK         0.1032 
     83 H83       -75.0423   31.9607  -74.5131 H         1 UNK         0.0461 
     84 H84       -73.1736   29.1106  -75.0762 H         1 UNK         0.3453 
     85 H85       -71.6409   29.8133  -74.6114 H         1 UNK         0.3453 
     86 H86       -76.0468   29.3001  -74.4944 H         1 UNK         0.2984 
     87 H87       -76.4257   28.0797  -76.2420 H         1 UNK         0.0554 
     88 H88       -77.7880   28.3916  -78.3229 H         1 UNK         0.0847 
     89 H89       -77.0549   29.9766  -78.5722 H         1 UNK         0.0847 
     90 H90       -78.0732   29.6780  -77.1708 H         1 UNK         0.0847 
     91 H91       -75.3357   28.1421  -78.8672 H         1 UNK         0.3141 
     92 H92       -73.7900   26.2960  -79.2274 H         1 UNK         0.0743 
     93 H93       -71.7172   28.5168  -78.6733 H         1 UNK         0.0784 
     94 H94       -71.7318   27.4803  -80.0990 H         1 UNK         0.0784 
     95 H95       -73.0325   28.6282  -79.8349 H         1 UNK         0.0784 
     96 H96       -72.1781   26.1013  -76.8850 H         1 UNK         0.3213 
     97 H97       -70.8655   22.9973  -77.7858 H         1 UNK         0.0855 
     98 H98       -69.0807   25.4420  -77.2736 H         1 UNK         0.0814 
     99 H99       -68.9112   24.3110  -78.6080 H         1 UNK         0.0814 
    100 H100      -68.6427   23.7606  -76.9632 H         1 UNK         0.0814 
    101 H101      -70.6002   24.7141  -75.4624 H         1 UNK         0.3105 
    102 H102      -72.2263   23.1711  -73.5035 H         1 UNK         0.0547 
    103 H103      -71.0434   25.3575  -73.6494 H         1 UNK         0.0837 
    104 H104      -72.4961   26.1398  -74.2713 H         1 UNK         0.0837 
    105 H105      -72.4431   25.5370  -72.6227 H         1 UNK         0.0837 
    106 H106      -74.6411   23.9385  -74.8485 H         1 UNK         0.3020 
    107 H107      -76.6367   22.9045  -72.1910 H         1 UNK         0.1245 
    108 H108      -76.6914   25.8478  -73.0464 H         1 UNK         0.0781 
    109 H109      -76.3601   25.2974  -71.4271 H         1 UNK         0.0781 
    110 H110      -77.9324   25.0339  -69.6819 H         1 UNK         0.0836 
    111 H111      -79.6651   25.1290  -69.8112 H         1 UNK         0.0836 
    112 H112      -77.3303   24.1107  -74.6987 H         1 UNK         0.3022 
    113 H113      -76.7028   21.4066  -76.7622 H         1 UNK         0.0747 
    114 H114      -79.1019   20.7626  -76.9761 H         1 UNK         0.0793 
    115 H115      -78.3966   20.0405  -75.5414 H         1 UNK         0.0793 
    116 H116      -79.4454   21.4423  -75.3840 H         1 UNK         0.0793 
    117 H117      -78.8389   23.3594  -76.7922 H         1 UNK         0.3047 
    118 H118      -76.9619   26.0848  -77.8427 H         1 UNK         0.0822 
    119 H119      -78.2324   26.0568  -79.9725 H         1 UNK         0.0807 
    120 H120      -78.5985   24.3432  -79.7624 H         1 UNK         0.0807 
    121 H121      -76.9416   24.8690  -80.0253 H         1 UNK         0.0807 
    122 H122      -79.7631   25.6340  -77.9631 H         1 UNK         0.2946 
    123 H123      -81.0262   26.8149  -76.4262 H         1 UNK         0.1144 
    124 H124      -82.1877   25.3396  -74.7380 H         1 UNK         0.0793 
    125 H125      -80.6408   24.6275  -74.2869 H         1 UNK         0.0793 
    126 H126      -81.2957   24.3722  -75.8988 H         1 UNK         0.0793 
    127 H127      -79.4032   27.4267  -74.1454 H         1 UNK         0.2896 
@<TRIPOS>BOND
     1    1    2 1    
     2    1   67 1    
     3    1   68 1    
     4    1   69 1    
     5    2    3 2    
     6    2    4 am   BACKBONE|DICT|INTERRES
     7    4    5 1    
     8    4   70 1    
     9    5    6 1    
    10    5   65 1    
    11    5   71 1    
    12    6    7 1    
    13    6   72 1    
    14    6   73 1    
    15    7    8 1    
    16    8    9 1    
    17    8   74 1    
    18    8   75 1    
    19    9   10 ar   
    20    9   14 ar   
    21   10   11 ar   
    22   10   76 1    
    23   11   12 ar   
    24   11   48 1    
    25   12   13 ar   
    26   12   77 1    
    27   13   14 ar   
    28   13   15 1    
    29   14   78 1    
    30   15   16 1    
    31   15   79 1    
    32   15   80 1    
    33   16   17 1    
    34   17   18 1    
    35   17   81 1    
    36   17   82 1    
    37   18   19 1    
    38   18   22 1    
    39   18   83 1    
    40   19   20 am   BACKBONE|DICT|INTERRES
    41   19   21 2    
    42   20   84 1    
    43   20   85 1    
    44   22   23 am   BACKBONE|DICT|INTERRES
    45   22   86 1    
    46   23   24 2    
    47   23   25 1    
    48   25   26 1    
    49   25   27 1    
    50   25   87 1    
    51   26   88 1    
    52   26   89 1    
    53   26   90 1    
    54   27   28 am   BACKBONE|DICT|INTERRES
    55   27   91 1    
    56   28   29 2    
    57   28   30 1    
    58   30   31 1    
    59   30   32 1    
    60   30   92 1    
    61   31   93 1    
    62   31   94 1    
    63   31   95 1    
    64   32   33 am   BACKBONE|DICT|INTERRES
    65   32   96 1    
    66   33   34 2    
    67   33   35 1    
    68   35   36 1    
    69   35   37 1    
    70   35   97 1    
    71   36   98 1    
    72   36   99 1    
    73   36  100 1    
    74   37   38 am   BACKBONE|DICT|INTERRES
    75   37  101 1    
    76   38   39 2    
    77   38   40 1    
    78   40   41 1    
    79   40   42 1    
    80   40  102 1    
    81   41  103 1    
    82   41  104 1    
    83   41  105 1    
    84   42   43 am   BACKBONE|DICT|INTERRES
    85   42  106 1    
    86   43   44 2    
    87   43   45 1    
    88   45   46 1    
    89   45   49 1    
    90   45  107 1    
    91   46   47 1    
    92   46  108 1    
    93   46  109 1    
    94   47   48 1    
    95   48  110 1    
    96   48  111 1    
    97   49   50 am   BACKBONE|DICT|INTERRES
    98   49  112 1    
    99   50   51 2    
   100   50   52 1    
   101   52   53 1    
   102   52   54 1    
   103   52  113 1    
   104   53  114 1    
   105   53  115 1    
   106   53  116 1    
   107   54   55 am   BACKBONE|DICT|INTERRES
   108   54  117 1    
   109   55   56 2    
   110   55   57 1    
   111   57   58 1    
   112   57   59 1    
   113   57  118 1    
   114   58  119 1    
   115   58  120 1    
   116   58  121 1    
   117   59   60 am   BACKBONE|DICT|INTERRES
   118   59  122 1    
   119   60   61 2    
   120   60   62 1    
   121   62   63 1    
   122   62   64 1    
   123   62  123 1    
   124   63  124 1    
   125   63  125 1    
   126   63  126 1    
   127   64   65 am   BACKBONE|DICT|INTERRES
   128   64  127 1    
   129   65   66 2    
@<TRIPOS>SUBSTRUCTURE
     1 UNK         1 GROUP             0       ****    0 ROOT    
