@<TRIPOS>MOLECULE
3R135
127   129    1
SMALL
USER_CHARGES


@<TRIPOS>ATOM
      1 CA        -75.7693   27.0918  -70.9544 C.3       0 UNK        -0.1998 
      2 C         -77.0009   26.4438  -70.3466 C.2       0 UNK         0.4909 
      3 O         -76.8856   25.6698  -69.3959 O.2       0 UNK        -0.5240 
      4 N         -78.1825   26.7500  -70.8958 N.am      1 UNK        -0.4739 
      5 CA        -79.4771   26.2202  -70.4395 C.3       1 UNK         0.0864 
      6 C6        -80.6481   27.1647  -70.8045 C.3       11 UNK        -0.0881 
      7 S7        -80.4232   28.8314  -70.0964 S.3       11 UNK        -0.2682 
      8 C8        -81.0519   29.8952  -71.4321 C.3       11 UNK         0.0289 
      9 C9        -80.1889   29.8508  -72.6872 C.ar      11 UNK        -0.0687 
     10 C10       -80.7092   29.3399  -73.8802 C.ar      11 UNK        -0.0823 
     11 C11       -79.9629   29.3664  -75.0628 C.ar      11 UNK        -0.0830 
     12 C12       -78.6672   29.9049  -75.0305 C.ar      11 UNK        -0.1021 
     13 C13       -78.1290   30.4067  -73.8420 C.ar      11 UNK        -0.0753 
     14 C14       -78.8939   30.3754  -72.6730 C.ar      11 UNK        -0.0933 
     15 C15       -76.7487   31.0465  -73.8328 C.3       11 UNK         0.0166 
     16 S16       -75.4449   29.8713  -73.3517 S.3       11 UNK        -0.2615 
     17 C17       -74.0249   31.0102  -73.2023 C.3       11 UNK        -0.0865 
     18 CA        -73.0195   30.8875  -74.3872 C.3       10 UNK         0.0862 
     19 C         -72.1187   32.1516  -74.5623 C.2       10 UNK         0.5551 
     20 N         -70.9042   32.0277  -75.0848 N.am      10 UNK        -0.7319 
     21 O         -72.5326   33.2674  -74.2568 O.2       10 UNK        -0.5018 
     22 N         -72.2772   29.6105  -74.3960 N.am      10 UNK        -0.4509 
     23 C         -71.3855   29.2146  -73.4747 C.2       10 UNK         0.4899 
     24 O         -71.1435   29.8424  -72.4420 O.2       10 UNK        -0.4839 
     25 CA        -70.5967   27.9250  -73.7841 C.3       9 UNK         0.0222 
     26 CB        -69.7112   27.4626  -72.6065 C.3       9 UNK        -0.1966 
     27 N         -71.4330   26.8202  -74.2635 N.am      9 UNK        -0.4218 
     28 C         -72.4520   26.2231  -73.6288 C.2       9 UNK         0.5020 
     29 O         -72.8397   26.5424  -72.5049 O.2       9 UNK        -0.5274 
     30 CA        -73.1397   25.0629  -74.3810 C.3       8 UNK         0.0270 
     31 CB        -74.4274   24.5816  -73.6857 C.3       8 UNK        -0.1976 
     32 N         -73.4415   25.4186  -75.7719 N.am      8 UNK        -0.4313 
     33 C         -72.5585   25.3773  -76.7828 C.2       8 UNK         0.5041 
     34 O         -71.4053   24.9669  -76.6481 O.2       8 UNK        -0.5577 
     35 CA        -72.9838   25.9501  -78.1482 C.3       7 UNK         0.0284 
     36 CB        -73.3874   24.8262  -79.1136 C.3       7 UNK        -0.1958 
     37 N         -74.0648   26.9324  -78.0516 N.am      7 UNK        -0.4454 
     38 C         -73.9505   28.1244  -77.4474 C.2       7 UNK         0.5089 
     39 O         -72.8903   28.5601  -76.9965 O.2       7 UNK        -0.5125 
     40 CA        -75.2339   28.9556  -77.2698 C.3       6 UNK         0.0408 
     41 CB        -75.2794   30.1074  -78.2844 C.3       6 UNK        -0.1791 
     42 N         -76.4821   28.1901  -77.3487 N.am      6 UNK        -0.4762 
     43 C         -76.8339   27.1784  -76.5423 C.2       6 UNK         0.5007 
     44 O         -76.0892   26.7164  -75.6760 O.2       6 UNK        -0.5032 
     45 CA        -78.2341   26.5544  -76.7372 C.3       5 UNK         0.0783 
     46 C46       -79.0605   27.0964  -77.9419 C.3       11 UNK        -0.0857 
     47 S47       -79.5913   28.8408  -77.8428 S.3       11 UNK        -0.2512 
     48 C48       -80.6355   28.8606  -76.3440 C.3       11 UNK         0.0225 
     49 N         -78.1409   25.0918  -76.7705 N.am      5 UNK        -0.4615 
     50 C         -77.4899   24.3605  -77.6906 C.2       4 UNK         0.5053 
     51 O         -76.8526   24.8532  -78.6222 O.2       4 UNK        -0.5105 
     52 CA        -77.5491   22.8234  -77.5704 C.3       4 UNK         0.0263 
     53 CB        -76.2091   22.2718  -77.0564 C.3       4 UNK        -0.1981 
     54 N         -78.6193   22.3397  -76.6970 N.am      4 UNK        -0.4224 
     55 C         -79.9339   22.4263  -76.9475 C.2       3 UNK         0.4895 
     56 O         -80.4038   22.8134  -78.0176 O.2       3 UNK        -0.5091 
     57 CA        -80.8879   22.0497  -75.7949 C.3       3 UNK         0.0250 
     58 CB        -81.4797   20.6492  -76.0235 C.3       3 UNK        -0.1996 
     59 N         -80.2735   22.1024  -74.4595 N.am      3 UNK        -0.4254 
     60 C         -79.7556   23.2011  -73.8915 C.2       2 UNK         0.5004 
     61 O         -79.7393   24.3096  -74.4344 O.2       2 UNK        -0.5226 
     62 CA        -79.0613   23.0013  -72.5376 C.3       2 UNK         0.0269 
     63 CB        -77.6635   22.3932  -72.7459 C.3       2 UNK        -0.1926 
     64 N         -78.9069   24.2860  -71.8597 N.am      2 UNK        -0.4687 
     65 C         -79.7527   24.7887  -70.9525 C.2       1 UNK         0.5165 
     66 O         -80.7281   24.1709  -70.5216 O.2       1 UNK        -0.5079 
     67 H67       -74.8883   26.4761  -70.7762 H         1 UNK         0.0900 
     68 H68       -75.5955   28.0718  -70.5114 H         1 UNK         0.0900 
     69 H69       -75.8766   27.2138  -72.0320 H         1 UNK         0.0900 
     70 H70       -78.2251   27.4160  -71.6550 H         1 UNK         0.2959 
     71 H71       -79.4460   26.1455  -69.3499 H         1 UNK         0.1079 
     72 H72       -81.5941   26.7721  -70.4262 H         1 UNK         0.0837 
     73 H73       -80.7576   27.2280  -71.8882 H         1 UNK         0.0837 
     74 H74       -82.0820   29.6123  -71.6547 H         1 UNK         0.0685 
     75 H75       -81.0916   30.9231  -71.0690 H         1 UNK         0.0685 
     76 H76       -81.7172   28.9473  -73.8964 H         1 UNK         0.1434 
     77 H77       -78.0717   29.9683  -75.9286 H         1 UNK         0.1329 
     78 H78       -78.4907   30.7809  -71.7548 H         1 UNK         0.1335 
     79 H79       -76.7514   31.8907  -73.1415 H         1 UNK         0.0680 
     80 H80       -76.5138   31.4560  -74.8167 H         1 UNK         0.0680 
     81 H81       -73.5293   30.8239  -72.2494 H         1 UNK         0.1032 
     82 H82       -74.4133   32.0264  -73.1225 H         1 UNK         0.1032 
     83 H83       -73.6102   30.8776  -75.3030 H         1 UNK         0.0461 
     84 H84       -70.5590   31.1240  -75.3648 H         1 UNK         0.3453 
     85 H85       -70.3323   32.8485  -75.2067 H         1 UNK         0.3453 
     86 H86       -72.3996   29.0528  -75.2375 H         1 UNK         0.2984 
     87 H87       -69.9307   28.1747  -74.6111 H         1 UNK         0.0554 
     88 H88       -69.1357   26.5742  -72.8663 H         1 UNK         0.0847 
     89 H89       -70.3043   27.2312  -71.7210 H         1 UNK         0.0847 
     90 H90       -68.9972   28.2377  -72.3251 H         1 UNK         0.0847 
     91 H91       -71.1985   26.4525  -75.1798 H         1 UNK         0.3141 
     92 H92       -72.4382   24.2260  -74.3760 H         1 UNK         0.0743 
     93 H93       -75.1711   25.3752  -73.6159 H         1 UNK         0.0784 
     94 H94       -74.8744   23.7460  -74.2219 H         1 UNK         0.0784 
     95 H95       -74.2212   24.2397  -72.6707 H         1 UNK         0.0784 
     96 H96       -74.3534   25.8418  -75.9284 H         1 UNK         0.3213 
     97 H97       -72.1130   26.4582  -78.5686 H         1 UNK         0.0855 
     98 H98       -74.2618   24.2846  -78.7575 H         1 UNK         0.0814 
     99 H99       -72.5799   24.1018  -79.2285 H         1 UNK         0.0814 
    100 H100      -73.6159   25.2164  -80.1055 H         1 UNK         0.0814 
    101 H101      -74.9794   26.6426  -78.3728 H         1 UNK         0.3105 
    102 H102      -75.1937   29.3884  -76.2701 H         1 UNK         0.0547 
    103 H103      -75.3575   29.7400  -79.3084 H         1 UNK         0.0837 
    104 H104      -76.1257   30.7687  -78.0975 H         1 UNK         0.0837 
    105 H105      -74.3763   30.7166  -78.2244 H         1 UNK         0.0837 
    106 H106      -77.1628   28.5027  -78.0287 H         1 UNK         0.3020 
    107 H107      -78.7789   26.7830  -75.8203 H         1 UNK         0.1245 
    108 H108      -78.5141   26.9613  -78.8769 H         1 UNK         0.0781 
    109 H109      -79.9664   26.4978  -78.0533 H         1 UNK         0.0781 
    110 H110      -81.4893   29.5076  -76.5505 H         1 UNK         0.0836 
    111 H111      -81.0475   27.8645  -76.1743 H         1 UNK         0.0836 
    112 H112      -78.6248   24.6188  -76.0130 H         1 UNK         0.3022 
    113 H113      -77.7254   22.4250  -78.5718 H         1 UNK         0.0747 
    114 H114      -76.2233   21.1834  -76.9961 H         1 UNK         0.0793 
    115 H115      -75.3915   22.5422  -77.7241 H         1 UNK         0.0793 
    116 H116      -75.9654   22.6607  -76.0676 H         1 UNK         0.0793 
    117 H117      -78.3377   21.9870  -75.7950 H         1 UNK         0.3047 
    118 H118      -81.7051   22.7741  -75.8085 H         1 UNK         0.0822 
    119 H119      -82.2290   20.4060  -75.2699 H         1 UNK         0.0807 
    120 H120      -80.7108   19.8760  -75.9966 H         1 UNK         0.0807 
    121 H121      -81.9706   20.5863  -76.9958 H         1 UNK         0.0807 
    122 H122      -80.2329   21.2291  -73.9528 H         1 UNK         0.2946 
    123 H123      -79.6613   22.3226  -71.9265 H         1 UNK         0.1144 
    124 H124      -77.1347   22.2845  -71.7986 H         1 UNK         0.0793 
    125 H125      -77.0488   23.0111  -73.4010 H         1 UNK         0.0793 
    126 H126      -77.7249   21.4006  -73.1939 H         1 UNK         0.0793 
    127 H127      -78.1683   24.8869  -72.1947 H         1 UNK         0.2896 
@<TRIPOS>BOND
     1    1    2 1    
     2    1   67 1    
     3    1   68 1    
     4    1   69 1    
     5    2    3 2    
     6    2    4 am   BACKBONE|DICT|INTERRES
     7    4    5 1    
     8    4   70 1    
     9    5    6 1    
    10    5   65 1    
    11    5   71 1    
    12    6    7 1    
    13    6   72 1    
    14    6   73 1    
    15    7    8 1    
    16    8    9 1    
    17    8   74 1    
    18    8   75 1    
    19    9   10 ar   
    20    9   14 ar   
    21   10   11 ar   
    22   10   76 1    
    23   11   12 ar   
    24   11   48 1    
    25   12   13 ar   
    26   12   77 1    
    27   13   14 ar   
    28   13   15 1    
    29   14   78 1    
    30   15   16 1    
    31   15   79 1    
    32   15   80 1    
    33   16   17 1    
    34   17   18 1    
    35   17   81 1    
    36   17   82 1    
    37   18   19 1    
    38   18   22 1    
    39   18   83 1    
    40   19   20 am   BACKBONE|DICT|INTERRES
    41   19   21 2    
    42   20   84 1    
    43   20   85 1    
    44   22   23 am   BACKBONE|DICT|INTERRES
    45   22   86 1    
    46   23   24 2    
    47   23   25 1    
    48   25   26 1    
    49   25   27 1    
    50   25   87 1    
    51   26   88 1    
    52   26   89 1    
    53   26   90 1    
    54   27   28 am   BACKBONE|DICT|INTERRES
    55   27   91 1    
    56   28   29 2    
    57   28   30 1    
    58   30   31 1    
    59   30   32 1    
    60   30   92 1    
    61   31   93 1    
    62   31   94 1    
    63   31   95 1    
    64   32   33 am   BACKBONE|DICT|INTERRES
    65   32   96 1    
    66   33   34 2    
    67   33   35 1    
    68   35   36 1    
    69   35   37 1    
    70   35   97 1    
    71   36   98 1    
    72   36   99 1    
    73   36  100 1    
    74   37   38 am   BACKBONE|DICT|INTERRES
    75   37  101 1    
    76   38   39 2    
    77   38   40 1    
    78   40   41 1    
    79   40   42 1    
    80   40  102 1    
    81   41  103 1    
    82   41  104 1    
    83   41  105 1    
    84   42   43 am   BACKBONE|DICT|INTERRES
    85   42  106 1    
    86   43   44 2    
    87   43   45 1    
    88   45   46 1    
    89   45   49 1    
    90   45  107 1    
    91   46   47 1    
    92   46  108 1    
    93   46  109 1    
    94   47   48 1    
    95   48  110 1    
    96   48  111 1    
    97   49   50 am   BACKBONE|DICT|INTERRES
    98   49  112 1    
    99   50   51 2    
   100   50   52 1    
   101   52   53 1    
   102   52   54 1    
   103   52  113 1    
   104   53  114 1    
   105   53  115 1    
   106   53  116 1    
   107   54   55 am   BACKBONE|DICT|INTERRES
   108   54  117 1    
   109   55   56 2    
   110   55   57 1    
   111   57   58 1    
   112   57   59 1    
   113   57  118 1    
   114   58  119 1    
   115   58  120 1    
   116   58  121 1    
   117   59   60 am   BACKBONE|DICT|INTERRES
   118   59  122 1    
   119   60   61 2    
   120   60   62 1    
   121   62   63 1    
   122   62   64 1    
   123   62  123 1    
   124   63  124 1    
   125   63  125 1    
   126   63  126 1    
   127   64   65 am   BACKBONE|DICT|INTERRES
   128   64  127 1    
   129   65   66 2    
@<TRIPOS>SUBSTRUCTURE
     1 UNK         1 GROUP             0       ****    0 ROOT    
