@<TRIPOS>MOLECULE
3R135
127   129    1
SMALL
USER_CHARGES


@<TRIPOS>ATOM
      1 CA        -82.1496   23.7630  -73.9166 C.3       0 UNK        -0.1998 
      2 C         -82.0686   25.0351  -74.7459 C.2       0 UNK         0.4909 
      3 O         -82.9015   25.2509  -75.6272 O.2       0 UNK        -0.5240 
      4 N         -81.0558   25.8719  -74.4903 N.am      1 UNK        -0.4739 
      5 CA        -80.7865   27.1371  -75.1861 C.3       1 UNK         0.0864 
      6 C6        -79.9718   28.1104  -74.2963 C.3       11 UNK        -0.0881 
      7 S7        -80.8947   28.6196  -72.8128 S.3       11 UNK        -0.2682 
      8 C8        -80.0457   30.1794  -72.3887 C.3       11 UNK         0.0289 
      9 C9        -78.6623   29.9773  -71.7750 C.ar      11 UNK        -0.0687 
     10 C10       -78.4650   29.0304  -70.7631 C.ar      11 UNK        -0.0823 
     11 C11       -77.2144   28.8850  -70.1587 C.ar      11 UNK        -0.0830 
     12 C12       -76.1656   29.7207  -70.5425 C.ar      11 UNK        -0.1021 
     13 C13       -76.3365   30.6591  -71.5633 C.ar      11 UNK        -0.0753 
     14 C14       -77.5875   30.7795  -72.1803 C.ar      11 UNK        -0.0933 
     15 C15       -75.1744   31.5591  -71.9681 C.3       11 UNK         0.0166 
     16 S16       -74.1114   30.8039  -73.2423 S.3       11 UNK        -0.2615 
     17 C17       -73.4158   29.3690  -72.3579 C.3       11 UNK        -0.0865 
     18 CA        -72.0040   28.9674  -72.8491 C.3       10 UNK         0.0862 
     19 C         -71.3951   27.8906  -71.9096 C.2       10 UNK         0.5551 
     20 N         -71.8260   26.6387  -72.0046 N.am      10 UNK        -0.7319 
     21 O         -70.5281   28.1941  -71.0938 O.2       10 UNK        -0.5018 
     22 N         -71.9958   28.5474  -74.2586 N.am      10 UNK        -0.4509 
     23 C         -70.8804   28.3705  -74.9802 C.2       10 UNK         0.4899 
     24 O         -69.7545   28.6743  -74.5837 O.2       10 UNK        -0.4839 
     25 CA        -71.0232   27.7430  -76.3734 C.3       9 UNK         0.0222 
     26 CB        -71.1107   26.2126  -76.2524 C.3       9 UNK        -0.1966 
     27 N         -72.2003   28.2381  -77.0902 N.am      9 UNK        -0.4218 
     28 C         -72.1622   28.9503  -78.2263 C.2       9 UNK         0.5020 
     29 O         -71.1177   29.3211  -78.7650 O.2       9 UNK        -0.5274 
     30 CA        -73.4988   29.2870  -78.9178 C.3       8 UNK         0.0270 
     31 CB        -73.7028   28.3891  -80.1500 C.3       8 UNK        -0.1976 
     32 N         -74.6635   29.1554  -78.0427 N.am      8 UNK        -0.4313 
     33 C         -75.0118   30.0379  -77.0982 C.2       8 UNK         0.5041 
     34 O         -74.4378   31.1137  -76.9271 O.2       8 UNK        -0.5577 
     35 CA        -76.1975   29.6564  -76.1896 C.3       7 UNK         0.0284 
     36 CB        -77.4793   30.3448  -76.6859 C.3       7 UNK        -0.1958 
     37 N         -76.4373   28.2116  -76.0423 N.am      7 UNK        -0.4454 
     38 C         -75.5445   27.3075  -75.6166 C.2       7 UNK         0.5089 
     39 O         -74.3735   27.5851  -75.3580 O.2       7 UNK        -0.5125 
     40 CA        -76.0182   25.8443  -75.5433 C.3       6 UNK         0.0408 
     41 CB        -74.9883   24.8855  -76.1710 C.3       6 UNK        -0.1791 
     42 N         -76.3673   25.3986  -74.1900 N.am      6 UNK        -0.4762 
     43 C         -75.6038   25.3905  -73.0813 C.2       6 UNK         0.5007 
     44 O         -74.4561   25.8315  -73.0155 O.2       6 UNK        -0.5032 
     45 CA        -76.2125   24.6968  -71.8400 C.3       5 UNK         0.0783 
     46 C46       -76.9870   25.6875  -70.9339 C.3       11 UNK        -0.0857 
     47 S47       -75.9029   26.4917  -69.7093 S.3       11 UNK        -0.2512 
     48 C48       -76.9844   27.8229  -69.0949 C.3       11 UNK         0.0225 
     49 N         -77.0509   23.5539  -72.2140 N.am      5 UNK        -0.4615 
     50 C         -76.5960   22.4153  -72.7519 C.2       4 UNK         0.5053 
     51 O         -75.4026   22.1549  -72.9053 O.2       4 UNK        -0.5105 
     52 CA        -77.6495   21.4016  -73.2278 C.3       4 UNK         0.0263 
     53 CB        -78.9374   21.3952  -72.3724 C.3       4 UNK        -0.1981 
     54 N         -77.9565   21.5779  -74.6521 N.am      4 UNK        -0.4224 
     55 C         -78.4910   22.6570  -75.2425 C.2       3 UNK         0.4895 
     56 O         -78.8146   23.6876  -74.6409 O.2       3 UNK        -0.5091 
     57 CA        -78.7037   22.5638  -76.7613 C.3       3 UNK         0.0250 
     58 CB        -79.5403   21.3296  -77.1564 C.3       3 UNK        -0.1996 
     59 N         -79.3855   23.7723  -77.2083 N.am      3 UNK        -0.4254 
     60 C         -79.3445   24.3163  -78.4295 C.2       2 UNK         0.5004 
     61 O         -78.6897   23.8500  -79.3624 O.2       2 UNK        -0.5226 
     62 CA        -80.1927   25.5843  -78.6611 C.3       2 UNK         0.0269 
     63 CB        -81.3405   25.2948  -79.6429 C.3       2 UNK        -0.1926 
     64 N         -80.7612   26.1216  -77.4200 N.am      2 UNK        -0.4687 
     65 C         -80.0871   26.8637  -76.5343 C.2       1 UNK         0.5165 
     66 O         -78.9424   27.2697  -76.7343 O.2       1 UNK        -0.5079 
     67 H67       -81.9455   22.8942  -74.5419 H         1 UNK         0.0900 
     68 H68       -83.1465   23.6534  -73.4906 H         1 UNK         0.0900 
     69 H69       -81.4305   23.7685  -73.0979 H         1 UNK         0.0900 
     70 H70       -80.3754   25.6124  -73.7903 H         1 UNK         0.2959 
     71 H71       -81.7384   27.6192  -75.4212 H         1 UNK         0.1079 
     72 H72       -79.7322   29.0119  -74.8586 H         1 UNK         0.0837 
     73 H73       -79.0200   27.6704  -73.9910 H         1 UNK         0.0837 
     74 H74       -79.9909   30.8112  -73.2766 H         1 UNK         0.0685 
     75 H75       -80.6608   30.7195  -71.6680 H         1 UNK         0.0685 
     76 H76       -79.2877   28.4040  -70.4468 H         1 UNK         0.1434 
     77 H77       -75.2096   29.6230  -70.0490 H         1 UNK         0.1329 
     78 H78       -77.7283   31.5160  -72.9596 H         1 UNK         0.1335 
     79 H79       -75.5570   32.5059  -72.3520 H         1 UNK         0.0680 
     80 H80       -74.5707   31.8107  -71.0947 H         1 UNK         0.0680 
     81 H81       -74.1125   28.5326  -72.4489 H         1 UNK         0.1032 
     82 H82       -73.3634   29.6176  -71.2976 H         1 UNK         0.1032 
     83 H83       -71.3702   29.8535  -72.7725 H         1 UNK         0.0461 
     84 H84       -71.4319   25.9357  -71.4012 H         1 UNK         0.3453 
     85 H85       -72.6129   26.4047  -72.6029 H         1 UNK         0.3453 
     86 H86       -72.8906   28.2376  -74.6337 H         1 UNK         0.2984 
     87 H87       -70.1131   27.9776  -76.9292 H         1 UNK         0.0554 
     88 H88       -71.1857   25.7391  -77.2314 H         1 UNK         0.0847 
     89 H89       -71.9738   25.9045  -75.6619 H         1 UNK         0.0847 
     90 H90       -70.2232   25.8092  -75.7631 H         1 UNK         0.0847 
     91 H91       -73.1003   28.0289  -76.6656 H         1 UNK         0.3141 
     92 H92       -73.4373   30.3229  -79.2588 H         1 UNK         0.0743 
     93 H93       -72.8702   28.4887  -80.8479 H         1 UNK         0.0784 
     94 H94       -73.7728   27.3356  -79.8758 H         1 UNK         0.0784 
     95 H95       -74.6098   28.6577  -80.6921 H         1 UNK         0.0784 
     96 H96       -75.2081   28.3095  -78.1254 H         1 UNK         0.3213 
     97 H97       -75.9769   30.0438  -75.1957 H         1 UNK         0.0855 
     98 H98       -77.3073   31.4044  -76.8814 H         1 UNK         0.0814 
     99 H99       -78.2708   30.2894  -75.9421 H         1 UNK         0.0814 
    100 H100      -77.8479   29.8970  -77.6095 H         1 UNK         0.0814 
    101 H101      -77.3747   27.8846  -76.2814 H         1 UNK         0.3105 
    102 H102      -76.9296   25.7555  -76.1345 H         1 UNK         0.0547 
    103 H103      -74.7172   25.2029  -77.1787 H         1 UNK         0.0837 
    104 H104      -74.0704   24.8373  -75.5857 H         1 UNK         0.0837 
    105 H105      -75.3864   23.8737  -76.2444 H         1 UNK         0.0837 
    106 H106      -77.2826   24.9666  -74.1176 H         1 UNK         0.3020 
    107 H107      -75.3745   24.2869  -71.2705 H         1 UNK         0.1245 
    108 H108      -77.7556   25.1628  -70.3637 H         1 UNK         0.0781 
    109 H109      -77.5163   26.4367  -71.5256 H         1 UNK         0.0781 
    110 H110      -76.5202   28.2829  -68.2213 H         1 UNK         0.0836 
    111 H111      -77.9283   27.3962  -68.7521 H         1 UNK         0.0836 
    112 H112      -78.0505   23.6875  -72.1699 H         1 UNK         0.3022 
    113 H113      -77.1925   20.4155  -73.1298 H         1 UNK         0.0747 
    114 H114      -79.5932   20.5752  -72.6648 H         1 UNK         0.0793 
    115 H115      -78.7032   21.2564  -71.3160 H         1 UNK         0.0793 
    116 H116      -79.5107   22.3173  -72.4625 H         1 UNK         0.0793 
    117 H117      -77.6956   20.7999  -75.2419 H         1 UNK         0.3047 
    118 H118      -77.7203   22.5114  -77.2331 H         1 UNK         0.0822 
    119 H119      -79.7264   21.3042  -78.2303 H         1 UNK         0.0807 
    120 H120      -80.5078   21.3231  -76.6523 H         1 UNK         0.0807 
    121 H121      -79.0314   20.3991  -76.9037 H         1 UNK         0.0807 
    122 H122      -79.8765   24.2642  -76.4735 H         1 UNK         0.2946 
    123 H123      -79.5365   26.3350  -79.1080 H         1 UNK         0.1144 
    124 H124      -81.9157   26.1957  -79.8570 H         1 UNK         0.0793 
    125 H125      -82.0266   24.5429  -79.2505 H         1 UNK         0.0793 
    126 H126      -80.9581   24.9230  -80.5946 H         1 UNK         0.0793 
    127 H127      -81.6852   25.7954  -77.1518 H         1 UNK         0.2896 
@<TRIPOS>BOND
     1    1    2 1    
     2    1   67 1    
     3    1   68 1    
     4    1   69 1    
     5    2    3 2    
     6    2    4 am   BACKBONE|DICT|INTERRES
     7    4    5 1    
     8    4   70 1    
     9    5    6 1    
    10    5   65 1    
    11    5   71 1    
    12    6    7 1    
    13    6   72 1    
    14    6   73 1    
    15    7    8 1    
    16    8    9 1    
    17    8   74 1    
    18    8   75 1    
    19    9   10 ar   
    20    9   14 ar   
    21   10   11 ar   
    22   10   76 1    
    23   11   12 ar   
    24   11   48 1    
    25   12   13 ar   
    26   12   77 1    
    27   13   14 ar   
    28   13   15 1    
    29   14   78 1    
    30   15   16 1    
    31   15   79 1    
    32   15   80 1    
    33   16   17 1    
    34   17   18 1    
    35   17   81 1    
    36   17   82 1    
    37   18   19 1    
    38   18   22 1    
    39   18   83 1    
    40   19   20 am   BACKBONE|DICT|INTERRES
    41   19   21 2    
    42   20   84 1    
    43   20   85 1    
    44   22   23 am   BACKBONE|DICT|INTERRES
    45   22   86 1    
    46   23   24 2    
    47   23   25 1    
    48   25   26 1    
    49   25   27 1    
    50   25   87 1    
    51   26   88 1    
    52   26   89 1    
    53   26   90 1    
    54   27   28 am   BACKBONE|DICT|INTERRES
    55   27   91 1    
    56   28   29 2    
    57   28   30 1    
    58   30   31 1    
    59   30   32 1    
    60   30   92 1    
    61   31   93 1    
    62   31   94 1    
    63   31   95 1    
    64   32   33 am   BACKBONE|DICT|INTERRES
    65   32   96 1    
    66   33   34 2    
    67   33   35 1    
    68   35   36 1    
    69   35   37 1    
    70   35   97 1    
    71   36   98 1    
    72   36   99 1    
    73   36  100 1    
    74   37   38 am   BACKBONE|DICT|INTERRES
    75   37  101 1    
    76   38   39 2    
    77   38   40 1    
    78   40   41 1    
    79   40   42 1    
    80   40  102 1    
    81   41  103 1    
    82   41  104 1    
    83   41  105 1    
    84   42   43 am   BACKBONE|DICT|INTERRES
    85   42  106 1    
    86   43   44 2    
    87   43   45 1    
    88   45   46 1    
    89   45   49 1    
    90   45  107 1    
    91   46   47 1    
    92   46  108 1    
    93   46  109 1    
    94   47   48 1    
    95   48  110 1    
    96   48  111 1    
    97   49   50 am   BACKBONE|DICT|INTERRES
    98   49  112 1    
    99   50   51 2    
   100   50   52 1    
   101   52   53 1    
   102   52   54 1    
   103   52  113 1    
   104   53  114 1    
   105   53  115 1    
   106   53  116 1    
   107   54   55 am   BACKBONE|DICT|INTERRES
   108   54  117 1    
   109   55   56 2    
   110   55   57 1    
   111   57   58 1    
   112   57   59 1    
   113   57  118 1    
   114   58  119 1    
   115   58  120 1    
   116   58  121 1    
   117   59   60 am   BACKBONE|DICT|INTERRES
   118   59  122 1    
   119   60   61 2    
   120   60   62 1    
   121   62   63 1    
   122   62   64 1    
   123   62  123 1    
   124   63  124 1    
   125   63  125 1    
   126   63  126 1    
   127   64   65 am   BACKBONE|DICT|INTERRES
   128   64  127 1    
   129   65   66 2    
@<TRIPOS>SUBSTRUCTURE
     1 UNK         1 GROUP             0       ****    0 ROOT    
