@<TRIPOS>MOLECULE
3R135
127   129    1
SMALL
USER_CHARGES


@<TRIPOS>ATOM
      1 CA        -85.1243   29.4916  -73.5969 C.3       0 UNK        -0.1998 
      2 C         -83.7256   28.9674  -73.8847 C.2       0 UNK         0.4909 
      3 O         -83.1265   29.3435  -74.8920 O.2       0 UNK        -0.5240 
      4 N         -83.2027   28.1002  -73.0078 N.am      1 UNK        -0.4739 
      5 CA        -81.8662   27.4984  -73.1176 C.3       1 UNK         0.0864 
      6 C6        -81.3845   26.9232  -71.7614 C.3       11 UNK        -0.0881 
      7 S7        -81.1568   28.2234  -70.5012 S.3       11 UNK        -0.2682 
      8 C8        -79.4272   27.9435  -69.9690 C.3       11 UNK         0.0289 
      9 C9        -78.3452   28.2010  -71.0221 C.ar      11 UNK        -0.0687 
     10 C10       -78.5691   28.9944  -72.1559 C.ar      11 UNK        -0.0823 
     11 C11       -77.5573   29.2018  -73.0979 C.ar      11 UNK        -0.0830 
     12 C12       -76.2920   28.6606  -72.8702 C.ar      11 UNK        -0.1021 
     13 C13       -76.0509   27.8579  -71.7557 C.ar      11 UNK        -0.0753 
     14 C14       -77.0786   27.6332  -70.8346 C.ar      11 UNK        -0.0933 
     15 C15       -74.6783   27.2327  -71.5703 C.3       11 UNK         0.0166 
     16 S16       -73.5924   28.3439  -70.6306 S.3       11 UNK        -0.2615 
     17 C17       -71.9402   27.8284  -71.2098 C.3       11 UNK        -0.0865 
     18 CA        -71.3092   28.8866  -72.1574 C.3       10 UNK         0.0862 
     19 C         -69.7676   28.7169  -72.3061 C.2       10 UNK         0.5551 
     20 N         -69.1777   28.9363  -73.4753 N.am      10 UNK        -0.7319 
     21 O         -69.0804   28.4103  -71.3345 O.2       10 UNK        -0.5018 
     22 N         -71.9988   28.9263  -73.4577 N.am      10 UNK        -0.4509 
     23 C         -72.6222   29.9922  -73.9784 C.2       10 UNK         0.4899 
     24 O         -72.7882   31.0496  -73.3686 O.2       10 UNK        -0.4839 
     25 CA        -73.1477   29.8678  -75.4295 C.3       9 UNK         0.0222 
     26 CB        -73.2555   31.2333  -76.1395 C.3       9 UNK        -0.1966 
     27 N         -72.4039   28.9162  -76.2662 N.am      9 UNK        -0.4218 
     28 C         -71.0820   28.9097  -76.5016 C.2       9 UNK         0.5020 
     29 O         -70.3115   29.7751  -76.0806 O.2       9 UNK        -0.5274 
     30 CA        -70.5177   27.7054  -77.2849 C.3       8 UNK         0.0270 
     31 CB        -68.9957   27.5404  -77.0909 C.3       8 UNK        -0.1976 
     32 N         -71.1890   26.4291  -77.0007 N.am      8 UNK        -0.4313 
     33 C         -71.4453   25.8676  -75.8089 C.2       8 UNK         0.5041 
     34 O         -71.2066   26.4083  -74.7271 O.2       8 UNK        -0.5577 
     35 CA        -72.1251   24.4841  -75.8477 C.3       7 UNK         0.0284 
     36 CB        -72.3776   23.9109  -74.4404 C.3       7 UNK        -0.1958 
     37 N         -73.3917   24.5403  -76.5840 N.am      7 UNK        -0.4454 
     38 C         -73.5026   24.5478  -77.9223 C.2       7 UNK         0.5089 
     39 O         -72.5360   24.4279  -78.6764 O.2       7 UNK        -0.5125 
     40 CA        -74.8962   24.7907  -78.5345 C.3       6 UNK         0.0408 
     41 CB        -75.5481   23.4558  -78.9259 C.3       6 UNK        -0.1791 
     42 N         -75.8057   25.5328  -77.6594 N.am      6 UNK        -0.4762 
     43 C         -75.5987   26.7723  -77.1863 C.2       6 UNK         0.5007 
     44 O         -74.6428   27.4773  -77.5135 O.2       6 UNK        -0.5032 
     45 CA        -76.5818   27.2876  -76.1135 C.3       5 UNK         0.0783 
     46 C46       -77.5352   28.3568  -76.7032 C.3       11 UNK        -0.0857 
     47 S47       -78.8034   28.9915  -75.5498 S.3       11 UNK        -0.2512 
     48 C48       -77.8451   29.9940  -74.3650 C.3       11 UNK         0.0225 
     49 N         -77.2816   26.2124  -75.3957 N.am      5 UNK        -0.4615 
     50 C         -76.6778   25.2674  -74.6564 C.2       4 UNK         0.5053 
     51 O         -75.4583   25.1957  -74.5136 O.2       4 UNK        -0.5105 
     52 CA        -77.5665   24.1972  -74.0063 C.3       4 UNK         0.0263 
     53 CB        -77.8730   24.5777  -72.5509 C.3       4 UNK        -0.1981 
     54 N         -78.8213   24.0060  -74.7324 N.am      4 UNK        -0.4224 
     55 C         -78.9508   23.3777  -75.9071 C.2       3 UNK         0.4895 
     56 O         -78.0274   22.8017  -76.4830 O.2       3 UNK        -0.5091 
     57 CA        -80.3568   23.4212  -76.5249 C.3       3 UNK         0.0250 
     58 CB        -80.4776   22.5967  -77.8197 C.3       3 UNK        -0.1996 
     59 N         -81.3208   22.9250  -75.5377 N.am      3 UNK        -0.4254 
     60 C         -82.4490   23.4846  -75.0756 C.2       2 UNK         0.5004 
     61 O         -83.0758   22.9618  -74.1540 O.2       2 UNK        -0.5226 
     62 CA        -83.0000   24.8047  -75.6623 C.3       2 UNK         0.0269 
     63 CB        -84.4704   24.6409  -76.0863 C.3       2 UNK        -0.1926 
     64 N         -82.9126   25.8853  -74.6768 N.am      2 UNK        -0.4687 
     65 C         -81.7722   26.4207  -74.2170 C.2       1 UNK         0.5165 
     66 O         -80.6593   26.0842  -74.6192 O.2       1 UNK        -0.5079 
     67 H67       -85.7982   29.2301  -74.4123 H         1 UNK         0.0900 
     68 H68       -85.1060   30.5771  -73.5046 H         1 UNK         0.0900 
     69 H69       -85.5326   29.0801  -72.6740 H         1 UNK         0.0900 
     70 H70       -83.7308   27.8438  -72.1854 H         1 UNK         0.2959 
     71 H71       -81.1728   28.2837  -73.4237 H         1 UNK         0.1079 
     72 H72       -82.0951   26.1880  -71.3794 H         1 UNK         0.0837 
     73 H73       -80.4411   26.3899  -71.8827 H         1 UNK         0.0837 
     74 H74       -79.2273   28.5898  -69.1135 H         1 UNK         0.0685 
     75 H75       -79.3462   26.9182  -69.6043 H         1 UNK         0.0685 
     76 H76       -79.5334   29.4504  -72.3223 H         1 UNK         0.1434 
     77 H77       -75.4873   28.8511  -73.5621 H         1 UNK         0.1329 
     78 H78       -76.8881   27.0177  -69.9660 H         1 UNK         0.1335 
     79 H79       -74.7582   26.2753  -71.0534 H         1 UNK         0.0680 
     80 H80       -74.2395   27.0202  -72.5472 H         1 UNK         0.0680 
     81 H81       -71.9841   26.8515  -71.6949 H         1 UNK         0.1032 
     82 H82       -71.3295   27.6906  -70.3157 H         1 UNK         0.1032 
     83 H83       -71.4106   29.8555  -71.6658 H         1 UNK         0.0461 
     84 H84       -68.1788   28.8309  -73.5456 H         1 UNK         0.3453 
     85 H85       -69.7119   29.2246  -74.2882 H         1 UNK         0.3453 
     86 H86       -71.8518   28.1009  -74.0350 H         1 UNK         0.2984 
     87 H87       -74.1567   29.4652  -75.3514 H         1 UNK         0.0554 
     88 H88       -73.6554   31.1253  -77.1477 H         1 UNK         0.0847 
     89 H89       -72.2853   31.7258  -76.2138 H         1 UNK         0.0847 
     90 H90       -73.9225   31.9069  -75.6002 H         1 UNK         0.0847 
     91 H91       -72.9664   28.1793  -76.6829 H         1 UNK         0.3141 
     92 H92       -70.6986   27.9210  -78.3388 H         1 UNK         0.0743 
     93 H93       -68.7441   27.3453  -76.0477 H         1 UNK         0.0784 
     94 H94       -68.6067   26.7159  -77.6883 H         1 UNK         0.0784 
     95 H95       -68.4576   28.4390  -77.3956 H         1 UNK         0.0784 
     96 H96       -71.4794   25.8944  -77.8149 H         1 UNK         0.3213 
     97 H97       -71.4450   23.8025  -76.3632 H         1 UNK         0.0855 
     98 H98       -73.0017   24.5723  -73.8385 H         1 UNK         0.0814 
     99 H99       -71.4384   23.7770  -73.9023 H         1 UNK         0.0814 
    100 H100      -72.8668   22.9381  -74.4874 H         1 UNK         0.0814 
    101 H101      -74.2217   24.7041  -76.0213 H         1 UNK         0.3105 
    102 H102      -74.7567   25.3833  -79.4409 H         1 UNK         0.0547 
    103 H103      -74.9128   22.8986  -79.6159 H         1 UNK         0.0837 
    104 H104      -75.7195   22.8203  -78.0561 H         1 UNK         0.0837 
    105 H105      -76.5063   23.6095  -79.4223 H         1 UNK         0.0837 
    106 H106      -76.6068   25.0238  -77.3120 H         1 UNK         0.3020 
    107 H107      -75.9476   27.7802  -75.3825 H         1 UNK         0.1245 
    108 H108      -78.0674   27.9459  -77.5632 H         1 UNK         0.0781 
    109 H109      -76.9645   29.2063  -77.0840 H         1 UNK         0.0781 
    110 H110      -78.4222   30.8839  -74.1097 H         1 UNK         0.0836 
    111 H111      -76.9235   30.3512  -74.8272 H         1 UNK         0.0836 
    112 H112      -78.2924   26.2399  -75.4225 H         1 UNK         0.3022 
    113 H113      -77.0155   23.2543  -74.0107 H         1 UNK         0.0747 
    114 H114      -78.5010   23.8315  -72.0643 H         1 UNK         0.0793 
    115 H115      -76.9538   24.6606  -71.9692 H         1 UNK         0.0793 
    116 H116      -78.3805   25.5402  -72.4914 H         1 UNK         0.0793 
    117 H117      -79.6187   24.5462  -74.4061 H         1 UNK         0.3047 
    118 H118      -80.5126   24.4685  -76.7745 H         1 UNK         0.0822 
    119 H119      -81.4753   22.6805  -78.2507 H         1 UNK         0.0807 
    120 H120      -80.2764   21.5391  -77.6444 H         1 UNK         0.0807 
    121 H121      -79.7694   22.9439  -78.5734 H         1 UNK         0.0807 
    122 H122      -81.0283   22.0709  -75.0836 H         1 UNK         0.2946 
    123 H123      -82.4591   25.1089  -76.5551 H         1 UNK         0.1144 
    124 H124      -84.5751   23.8452  -76.8251 H         1 UNK         0.0793 
    125 H125      -84.8567   25.5543  -76.5393 H         1 UNK         0.0793 
    126 H126      -85.1140   24.3885  -75.2423 H         1 UNK         0.0793 
    127 H127      -83.7809   26.2052  -74.2736 H         1 UNK         0.2896 
@<TRIPOS>BOND
     1    1    2 1    
     2    1   67 1    
     3    1   68 1    
     4    1   69 1    
     5    2    3 2    
     6    2    4 am   BACKBONE|DICT|INTERRES
     7    4    5 1    
     8    4   70 1    
     9    5    6 1    
    10    5   65 1    
    11    5   71 1    
    12    6    7 1    
    13    6   72 1    
    14    6   73 1    
    15    7    8 1    
    16    8    9 1    
    17    8   74 1    
    18    8   75 1    
    19    9   10 ar   
    20    9   14 ar   
    21   10   11 ar   
    22   10   76 1    
    23   11   12 ar   
    24   11   48 1    
    25   12   13 ar   
    26   12   77 1    
    27   13   14 ar   
    28   13   15 1    
    29   14   78 1    
    30   15   16 1    
    31   15   79 1    
    32   15   80 1    
    33   16   17 1    
    34   17   18 1    
    35   17   81 1    
    36   17   82 1    
    37   18   19 1    
    38   18   22 1    
    39   18   83 1    
    40   19   20 am   BACKBONE|DICT|INTERRES
    41   19   21 2    
    42   20   84 1    
    43   20   85 1    
    44   22   23 am   BACKBONE|DICT|INTERRES
    45   22   86 1    
    46   23   24 2    
    47   23   25 1    
    48   25   26 1    
    49   25   27 1    
    50   25   87 1    
    51   26   88 1    
    52   26   89 1    
    53   26   90 1    
    54   27   28 am   BACKBONE|DICT|INTERRES
    55   27   91 1    
    56   28   29 2    
    57   28   30 1    
    58   30   31 1    
    59   30   32 1    
    60   30   92 1    
    61   31   93 1    
    62   31   94 1    
    63   31   95 1    
    64   32   33 am   BACKBONE|DICT|INTERRES
    65   32   96 1    
    66   33   34 2    
    67   33   35 1    
    68   35   36 1    
    69   35   37 1    
    70   35   97 1    
    71   36   98 1    
    72   36   99 1    
    73   36  100 1    
    74   37   38 am   BACKBONE|DICT|INTERRES
    75   37  101 1    
    76   38   39 2    
    77   38   40 1    
    78   40   41 1    
    79   40   42 1    
    80   40  102 1    
    81   41  103 1    
    82   41  104 1    
    83   41  105 1    
    84   42   43 am   BACKBONE|DICT|INTERRES
    85   42  106 1    
    86   43   44 2    
    87   43   45 1    
    88   45   46 1    
    89   45   49 1    
    90   45  107 1    
    91   46   47 1    
    92   46  108 1    
    93   46  109 1    
    94   47   48 1    
    95   48  110 1    
    96   48  111 1    
    97   49   50 am   BACKBONE|DICT|INTERRES
    98   49  112 1    
    99   50   51 2    
   100   50   52 1    
   101   52   53 1    
   102   52   54 1    
   103   52  113 1    
   104   53  114 1    
   105   53  115 1    
   106   53  116 1    
   107   54   55 am   BACKBONE|DICT|INTERRES
   108   54  117 1    
   109   55   56 2    
   110   55   57 1    
   111   57   58 1    
   112   57   59 1    
   113   57  118 1    
   114   58  119 1    
   115   58  120 1    
   116   58  121 1    
   117   59   60 am   BACKBONE|DICT|INTERRES
   118   59  122 1    
   119   60   61 2    
   120   60   62 1    
   121   62   63 1    
   122   62   64 1    
   123   62  123 1    
   124   63  124 1    
   125   63  125 1    
   126   63  126 1    
   127   64   65 am   BACKBONE|DICT|INTERRES
   128   64  127 1    
   129   65   66 2    
@<TRIPOS>SUBSTRUCTURE
     1 UNK         1 GROUP             0       ****    0 ROOT    
