@<TRIPOS>MOLECULE
3R135
127   129    1
SMALL
USER_CHARGES


@<TRIPOS>ATOM
      1 CA        -83.6095   21.8702  -71.0103 C.3       0 UNK        -0.1998 
      2 C         -82.6400   22.9117  -71.5468 C.2       0 UNK         0.4909 
      3 O         -81.8515   22.6095  -72.4418 O.2       0 UNK        -0.5240 
      4 N         -82.7071   24.1467  -71.0272 N.am      1 UNK        -0.4739 
      5 CA        -81.8300   25.2813  -71.3675 C.3       1 UNK         0.0864 
      6 C6        -80.3584   25.0236  -70.9292 C.3       11 UNK        -0.0881 
      7 S7        -79.4576   26.5521  -70.4961 S.3       11 UNK        -0.2682 
      8 C8        -78.1147   26.5144  -71.7235 C.3       11 UNK         0.0289 
      9 C9        -77.5299   27.8991  -71.9474 C.ar      11 UNK        -0.0687 
     10 C10       -78.0176   28.7054  -72.9801 C.ar      11 UNK        -0.0823 
     11 C11       -77.4672   29.9682  -73.2150 C.ar      11 UNK        -0.0830 
     12 C12       -76.4501   30.4399  -72.3803 C.ar      11 UNK        -0.1021 
     13 C13       -75.9536   29.6429  -71.3442 C.ar      11 UNK        -0.0753 
     14 C14       -76.4939   28.3700  -71.1362 C.ar      11 UNK        -0.0933 
     15 C15       -74.8413   30.1549  -70.4414 C.3       11 UNK         0.0166 
     16 S16       -73.1936   29.8299  -71.1450 S.3       11 UNK        -0.2615 
     17 C17       -73.0028   31.2113  -72.3269 C.3       11 UNK        -0.0865 
     18 CA        -73.1462   30.7808  -73.8173 C.3       10 UNK         0.0862 
     19 C         -73.1677   31.9959  -74.7929 C.2       10 UNK         0.5551 
     20 N         -72.6230   31.8853  -75.9990 N.am      10 UNK        -0.7319 
     21 O         -73.7082   33.0494  -74.4649 O.2       10 UNK        -0.5018 
     22 N         -72.2298   29.6986  -74.2163 N.am      10 UNK        -0.4509 
     23 C         -70.8905   29.7133  -74.1633 C.2       10 UNK         0.4899 
     24 O         -70.2318   30.6661  -73.7442 O.2       10 UNK        -0.4839 
     25 CA        -70.1537   28.4733  -74.7106 C.3       9 UNK         0.0222 
     26 CB        -68.8167   28.2012  -73.9877 C.3       9 UNK        -0.1966 
     27 N         -70.9914   27.2688  -74.7762 N.am      9 UNK        -0.4218 
     28 C         -71.4916   26.5502  -73.7554 C.2       9 UNK         0.5020 
     29 O         -71.2301   26.7672  -72.5720 O.2       9 UNK        -0.5274 
     30 CA        -72.4611   25.3995  -74.0987 C.3       8 UNK         0.0270 
     31 CB        -73.8068   25.5738  -73.3676 C.3       8 UNK        -0.1976 
     32 N         -72.7145   25.2969  -75.5383 N.am      8 UNK        -0.4313 
     33 C         -72.0237   24.5265  -76.3907 C.2       8 UNK         0.5041 
     34 O         -71.1448   23.7391  -76.0393 O.2       8 UNK        -0.5577 
     35 CA        -72.3435   24.6677  -77.8930 C.3       7 UNK         0.0284 
     36 CB        -73.2129   23.4942  -78.3742 C.3       7 UNK        -0.1958 
     37 N         -72.9972   25.9327  -78.2496 N.am      7 UNK        -0.4454 
     38 C         -72.4206   27.1410  -78.1764 C.2       7 UNK         0.5089 
     39 O         -71.2600   27.3243  -77.8112 O.2       7 UNK        -0.5125 
     40 CA        -73.3235   28.3512  -78.4754 C.3       6 UNK         0.0408 
     41 CB        -73.4381   28.5851  -79.9896 C.3       6 UNK        -0.1791 
     42 N         -74.6643   28.2334  -77.8853 N.am      6 UNK        -0.4762 
     43 C         -74.9047   28.1188  -76.5696 C.2       6 UNK         0.5007 
     44 O         -74.0152   28.0452  -75.7226 O.2       6 UNK        -0.5032 
     45 CA        -76.3667   27.9529  -76.1384 C.3       5 UNK         0.0783 
     46 C46       -77.3007   29.1208  -76.5540 C.3       11 UNK        -0.0857 
     47 S47       -76.8446   30.7248  -75.8070 S.3       11 UNK        -0.2512 
     48 C48       -77.9630   30.8250  -74.3703 C.3       11 UNK         0.0225 
     49 N         -76.8086   26.6478  -76.6255 N.am      5 UNK        -0.4615 
     50 C         -77.8177   25.9443  -76.1073 C.2       4 UNK         0.5053 
     51 O         -78.5828   26.3725  -75.2458 O.2       4 UNK        -0.5105 
     52 CA        -77.9707   24.5046  -76.6056 C.3       4 UNK         0.0263 
     53 CB        -76.8625   23.6063  -76.0191 C.3       4 UNK        -0.1981 
     54 N         -79.2811   23.9992  -76.2035 N.am      4 UNK        -0.4224 
     55 C         -79.9258   22.9749  -76.7729 C.2       3 UNK         0.4895 
     56 O         -79.4794   22.3395  -77.7295 O.2       3 UNK        -0.5091 
     57 CA        -81.2869   22.5620  -76.1820 C.3       3 UNK         0.0250 
     58 CB        -81.1317   21.2870  -75.3371 C.3       3 UNK        -0.1996 
     59 N         -81.9489   23.5962  -75.3777 N.am      3 UNK        -0.4254 
     60 C         -82.5248   24.6966  -75.8887 C.2       2 UNK         0.5004 
     61 O         -82.4895   24.9820  -77.0863 O.2       2 UNK        -0.5226 
     62 CA        -83.3032   25.6232  -74.9330 C.3       2 UNK         0.0269 
     63 CB        -84.8151   25.5158  -75.1957 C.3       2 UNK        -0.1926 
     64 N         -83.0544   25.3507  -73.5155 N.am      2 UNK        -0.4687 
     65 C         -81.9661   25.7487  -72.8419 C.2       1 UNK         0.5165 
     66 O         -81.1033   26.4618  -73.3497 O.2       1 UNK        -0.5079 
     67 H67       -84.2606   22.2780  -70.2374 H         1 UNK         0.0900 
     68 H68       -84.2355   21.4901  -71.8171 H         1 UNK         0.0900 
     69 H69       -83.0587   21.0327  -70.5832 H         1 UNK         0.0900 
     70 H70       -83.3950   24.3387  -70.3110 H         1 UNK         0.2959 
     71 H71       -82.2116   26.1136  -70.7738 H         1 UNK         0.1079 
     72 H72       -80.3433   24.4014  -70.0330 H         1 UNK         0.0837 
     73 H73       -79.8197   24.4500  -71.6860 H         1 UNK         0.0837 
     74 H74       -77.3386   25.8236  -71.3908 H         1 UNK         0.0685 
     75 H75       -78.4897   26.1199  -72.6675 H         1 UNK         0.0685 
     76 H76       -78.8166   28.3379  -73.6106 H         1 UNK         0.1434 
     77 H77       -76.0327   31.4224  -72.5518 H         1 UNK         0.1329 
     78 H78       -76.1129   27.7468  -70.3387 H         1 UNK         0.1335 
     79 H79       -74.9024   29.6647  -69.4685 H         1 UNK         0.0680 
     80 H80       -74.9672   31.2207  -70.2456 H         1 UNK         0.0680 
     81 H81       -73.7299   31.9863  -72.0818 H         1 UNK         0.1032 
     82 H82       -72.0293   31.6723  -72.1563 H         1 UNK         0.1032 
     83 H83       -74.1370   30.3409  -73.9266 H         1 UNK         0.0461 
     84 H84       -72.6494   32.6722  -76.6277 H         1 UNK         0.3453 
     85 H85       -72.1830   31.0246  -76.2789 H         1 UNK         0.3453 
     86 H86       -72.6921   28.8939  -74.6291 H         1 UNK         0.2984 
     87 H87       -69.9130   28.7127  -75.7472 H         1 UNK         0.0554 
     88 H88       -68.1303   29.0403  -74.1076 H         1 UNK         0.0847 
     89 H89       -68.3194   27.3186  -74.3893 H         1 UNK         0.0847 
     90 H90       -68.9565   28.0518  -72.9168 H         1 UNK         0.0847 
     91 H91       -71.2618   27.0045  -75.7167 H         1 UNK         0.3141 
     92 H92       -72.0031   24.4748  -73.7415 H         1 UNK         0.0743 
     93 H93       -74.5035   24.7736  -73.6178 H         1 UNK         0.0784 
     94 H94       -73.6674   25.5528  -72.2859 H         1 UNK         0.0784 
     95 H95       -74.2851   26.5234  -73.6084 H         1 UNK         0.0784 
     96 H96       -73.3811   25.9599  -75.9115 H         1 UNK         0.3213 
     97 H97       -71.3911   24.6248  -78.4265 H         1 UNK         0.0855 
     98 H98       -74.1932   23.4908  -77.8983 H         1 UNK         0.0814 
     99 H99       -72.7384   22.5386  -78.1459 H         1 UNK         0.0814 
    100 H100      -73.3626   23.5271  -79.4536 H         1 UNK         0.0814 
    101 H101      -73.9475   25.8779  -78.5837 H         1 UNK         0.3105 
    102 H102      -72.8487   29.2300  -78.0340 H         1 UNK         0.0547 
    103 H103      -73.9903   29.4991  -80.2089 H         1 UNK         0.0837 
    104 H104      -72.4515   28.6901  -80.4434 H         1 UNK         0.0837 
    105 H105      -73.9417   27.7593  -80.4935 H         1 UNK         0.0837 
    106 H106      -75.4465   28.2856  -78.5227 H         1 UNK         0.3020 
    107 H107      -76.3549   27.9063  -75.0472 H         1 UNK         0.1245 
    108 H108      -78.3299   28.8910  -76.2757 H         1 UNK         0.0781 
    109 H109      -77.3137   29.2387  -77.6384 H         1 UNK         0.0781 
    110 H110      -78.9754   30.5413  -74.6621 H         1 UNK         0.0836 
    111 H111      -78.0236   31.8653  -74.0471 H         1 UNK         0.0836 
    112 H112      -76.2272   26.2218  -77.3313 H         1 UNK         0.3022 
    113 H113      -77.9058   24.5126  -77.6957 H         1 UNK         0.0747 
    114 H114      -76.9364   23.5393  -74.9328 H         1 UNK         0.0793 
    115 H115      -76.9171   22.5939  -76.4195 H         1 UNK         0.0793 
    116 H116      -75.8694   23.9905  -76.2514 H         1 UNK         0.0793 
    117 H117      -79.7232   24.5271  -75.4597 H         1 UNK         0.3047 
    118 H118      -81.9413   22.3270  -77.0243 H         1 UNK         0.0822 
    119 H119      -80.7110   20.4732  -75.9294 H         1 UNK         0.0807 
    120 H120      -82.0923   20.9441  -74.9521 H         1 UNK         0.0807 
    121 H121      -80.4676   21.4472  -74.4867 H         1 UNK         0.0807 
    122 H122      -82.0046   23.4264  -74.3785 H         1 UNK         0.2946 
    123 H123      -82.9896   26.6462  -75.1547 H         1 UNK         0.1144 
    124 H124      -85.3765   26.2147  -74.5752 H         1 UNK         0.0793 
    125 H125      -85.1897   24.5112  -74.9955 H         1 UNK         0.0793 
    126 H126      -85.0496   25.7496  -76.2352 H         1 UNK         0.0793 
    127 H127      -83.7243   24.7679  -73.0343 H         1 UNK         0.2896 
@<TRIPOS>BOND
     1    1    2 1    
     2    1   67 1    
     3    1   68 1    
     4    1   69 1    
     5    2    3 2    
     6    2    4 am   BACKBONE|DICT|INTERRES
     7    4    5 1    
     8    4   70 1    
     9    5    6 1    
    10    5   65 1    
    11    5   71 1    
    12    6    7 1    
    13    6   72 1    
    14    6   73 1    
    15    7    8 1    
    16    8    9 1    
    17    8   74 1    
    18    8   75 1    
    19    9   10 ar   
    20    9   14 ar   
    21   10   11 ar   
    22   10   76 1    
    23   11   12 ar   
    24   11   48 1    
    25   12   13 ar   
    26   12   77 1    
    27   13   14 ar   
    28   13   15 1    
    29   14   78 1    
    30   15   16 1    
    31   15   79 1    
    32   15   80 1    
    33   16   17 1    
    34   17   18 1    
    35   17   81 1    
    36   17   82 1    
    37   18   19 1    
    38   18   22 1    
    39   18   83 1    
    40   19   20 am   BACKBONE|DICT|INTERRES
    41   19   21 2    
    42   20   84 1    
    43   20   85 1    
    44   22   23 am   BACKBONE|DICT|INTERRES
    45   22   86 1    
    46   23   24 2    
    47   23   25 1    
    48   25   26 1    
    49   25   27 1    
    50   25   87 1    
    51   26   88 1    
    52   26   89 1    
    53   26   90 1    
    54   27   28 am   BACKBONE|DICT|INTERRES
    55   27   91 1    
    56   28   29 2    
    57   28   30 1    
    58   30   31 1    
    59   30   32 1    
    60   30   92 1    
    61   31   93 1    
    62   31   94 1    
    63   31   95 1    
    64   32   33 am   BACKBONE|DICT|INTERRES
    65   32   96 1    
    66   33   34 2    
    67   33   35 1    
    68   35   36 1    
    69   35   37 1    
    70   35   97 1    
    71   36   98 1    
    72   36   99 1    
    73   36  100 1    
    74   37   38 am   BACKBONE|DICT|INTERRES
    75   37  101 1    
    76   38   39 2    
    77   38   40 1    
    78   40   41 1    
    79   40   42 1    
    80   40  102 1    
    81   41  103 1    
    82   41  104 1    
    83   41  105 1    
    84   42   43 am   BACKBONE|DICT|INTERRES
    85   42  106 1    
    86   43   44 2    
    87   43   45 1    
    88   45   46 1    
    89   45   49 1    
    90   45  107 1    
    91   46   47 1    
    92   46  108 1    
    93   46  109 1    
    94   47   48 1    
    95   48  110 1    
    96   48  111 1    
    97   49   50 am   BACKBONE|DICT|INTERRES
    98   49  112 1    
    99   50   51 2    
   100   50   52 1    
   101   52   53 1    
   102   52   54 1    
   103   52  113 1    
   104   53  114 1    
   105   53  115 1    
   106   53  116 1    
   107   54   55 am   BACKBONE|DICT|INTERRES
   108   54  117 1    
   109   55   56 2    
   110   55   57 1    
   111   57   58 1    
   112   57   59 1    
   113   57  118 1    
   114   58  119 1    
   115   58  120 1    
   116   58  121 1    
   117   59   60 am   BACKBONE|DICT|INTERRES
   118   59  122 1    
   119   60   61 2    
   120   60   62 1    
   121   62   63 1    
   122   62   64 1    
   123   62  123 1    
   124   63  124 1    
   125   63  125 1    
   126   63  126 1    
   127   64   65 am   BACKBONE|DICT|INTERRES
   128   64  127 1    
   129   65   66 2    
@<TRIPOS>SUBSTRUCTURE
     1 UNK         1 GROUP             0       ****    0 ROOT    
