@<TRIPOS>MOLECULE
3R135
127   129    1
SMALL
USER_CHARGES


@<TRIPOS>ATOM
      1 CA        -86.0793   27.1631  -73.0951 C.3       0 UNK        -0.1998 
      2 C         -84.7576   26.5443  -73.5241 C.2       0 UNK         0.4909 
      3 O         -84.6822   25.3303  -73.7169 O.2       0 UNK        -0.5240 
      4 N         -83.7165   27.3696  -73.6850 N.am      1 UNK        -0.4739 
      5 CA        -82.3529   26.9491  -74.0160 C.3       1 UNK         0.0864 
      6 C6        -81.4914   28.1261  -74.5554 C.3       11 UNK        -0.0881 
      7 S7        -81.6301   29.6792  -73.5965 S.3       11 UNK        -0.2682 
      8 C8        -80.0528   30.5066  -73.9994 C.3       11 UNK         0.0289 
      9 C9        -78.7954   29.9304  -73.3428 C.ar      11 UNK        -0.0687 
     10 C10       -78.8330   28.9831  -72.3100 C.ar      11 UNK        -0.0823 
     11 C11       -77.6529   28.4901  -71.7447 C.ar      11 UNK        -0.0830 
     12 C12       -76.4232   28.9659  -72.2060 C.ar      11 UNK        -0.1021 
     13 C13       -76.3654   29.9111  -73.2319 C.ar      11 UNK        -0.0753 
     14 C14       -77.5534   30.3908  -73.7898 C.ar      11 UNK        -0.0933 
     15 C15       -75.0243   30.3753  -73.7784 C.3       11 UNK         0.0166 
     16 S16       -74.1731   31.5199  -72.6462 S.3       11 UNK        -0.2615 
     17 C17       -73.0052   30.4052  -71.7869 C.3       11 UNK        -0.0865 
     18 CA        -71.6049   30.3903  -72.4570 C.3       10 UNK         0.0862 
     19 C         -70.5587   29.6228  -71.5949 C.2       10 UNK         0.5551 
     20 N         -69.8353   28.6419  -72.1243 N.am      10 UNK        -0.7319 
     21 O         -70.3910   29.9328  -70.4181 O.2       10 UNK        -0.5018 
     22 N         -71.6904   29.9132  -73.8442 N.am      10 UNK        -0.4509 
     23 C         -70.9151   30.3148  -74.8558 C.2       10 UNK         0.4899 
     24 O         -70.0509   31.1874  -74.7570 O.2       10 UNK        -0.4839 
     25 CA        -71.1574   29.6086  -76.2051 C.3       9 UNK         0.0222 
     26 CB        -69.9601   29.7389  -77.1701 C.3       9 UNK        -0.1966 
     27 N         -71.5589   28.2004  -76.0674 N.am      9 UNK        -0.4218 
     28 C         -70.8637   27.2139  -75.4728 C.2       9 UNK         0.5020 
     29 O         -69.7939   27.3945  -74.8889 O.2       9 UNK        -0.5274 
     30 CA        -71.4536   25.7893  -75.4986 C.3       8 UNK         0.0270 
     31 CB        -71.7702   25.3045  -74.0733 C.3       8 UNK        -0.1976 
     32 N         -72.6511   25.6682  -76.3349 N.am      8 UNK        -0.4313 
     33 C         -72.6373   25.6380  -77.6758 C.2       8 UNK         0.5041 
     34 O         -71.6015   25.6275  -78.3421 O.2       8 UNK        -0.5577 
     35 CA        -73.9905   25.6482  -78.4116 C.3       7 UNK         0.0284 
     36 CB        -74.3153   24.2424  -78.9408 C.3       7 UNK        -0.1958 
     37 N         -75.1196   26.1431  -77.6156 N.am      7 UNK        -0.4454 
     38 C         -75.2331   27.3809  -77.1119 C.2       7 UNK         0.5089 
     39 O         -74.3780   28.2568  -77.2516 O.2       7 UNK        -0.5125 
     40 CA        -76.4743   27.6630  -76.2457 C.3       6 UNK         0.0408 
     41 CB        -77.7149   27.9331  -77.1097 C.3       6 UNK        -0.1791 
     42 N         -76.7590   26.5891  -75.2897 N.am      6 UNK        -0.4762 
     43 C         -75.9204   26.1908  -74.3203 C.2       6 UNK         0.5007 
     44 O         -74.8225   26.7073  -74.1123 O.2       6 UNK        -0.5032 
     45 CA        -76.3451   24.9541  -73.5062 C.3       5 UNK         0.0783 
     46 C46       -77.3986   25.2821  -72.4170 C.3       11 UNK        -0.0857 
     47 S47       -76.6503   26.0027  -70.9197 S.3       11 UNK        -0.2512 
     48 C48       -77.7154   27.4560  -70.6254 C.3       11 UNK         0.0225 
     49 N         -76.8117   23.8982  -74.4058 N.am      5 UNK        -0.4615 
     50 C         -76.0182   23.1639  -75.1981 C.2       4 UNK         0.5053 
     51 O         -74.7904   23.2426  -75.1973 O.2       4 UNK        -0.5105 
     52 CA        -76.7095   22.1870  -76.1677 C.3       4 UNK         0.0263 
     53 CB        -76.8371   20.7969  -75.5250 C.3       4 UNK        -0.1981 
     54 N         -78.0332   22.6428  -76.6019 N.am      4 UNK        -0.4224 
     55 C         -78.2552   23.7224  -77.3663 C.2       3 UNK         0.4895 
     56 O         -77.3615   24.4171  -77.8451 O.2       3 UNK        -0.5091 
     57 CA        -79.7226   24.1366  -77.5731 C.3       3 UNK         0.0250 
     58 CB        -80.3312   23.3946  -78.7732 C.3       3 UNK        -0.1996 
     59 N         -80.5545   23.9227  -76.3826 N.am      3 UNK        -0.4254 
     60 C         -80.3384   24.5074  -75.1966 C.2       2 UNK         0.5004 
     61 O         -79.4289   25.3128  -74.9899 O.2       2 UNK        -0.5226 
     62 CA        -81.2561   24.0715  -74.0434 C.3       2 UNK         0.0269 
     63 CB        -80.8339   22.6778  -73.5463 C.3       2 UNK        -0.1926 
     64 N         -81.2223   24.9890  -72.8989 N.am      2 UNK        -0.4687 
     65 C         -81.6966   26.2414  -72.8017 C.2       1 UNK         0.5165 
     66 O         -81.6373   26.8457  -71.7307 O.2       1 UNK        -0.5079 
     67 H67       -86.8479   26.9610  -73.8405 H         1 UNK         0.0900 
     68 H68       -86.0022   28.2433  -72.9715 H         1 UNK         0.0900 
     69 H69       -86.4029   26.7355  -72.1465 H         1 UNK         0.0900 
     70 H70       -83.8169   28.3550  -73.4829 H         1 UNK         0.2959 
     71 H71       -82.4548   26.2449  -74.8394 H         1 UNK         0.1079 
     72 H72       -80.4423   27.8316  -74.6265 H         1 UNK         0.0837 
     73 H73       -81.7971   28.3527  -75.5779 H         1 UNK         0.0837 
     74 H74       -79.9302   30.5031  -75.0837 H         1 UNK         0.0685 
     75 H75       -80.1389   31.5529  -73.7033 H         1 UNK         0.0685 
     76 H76       -79.7794   28.6237  -71.9352 H         1 UNK         0.1434 
     77 H77       -75.5100   28.5777  -71.7800 H         1 UNK         0.1329 
     78 H78       -77.5114   31.1206  -74.5869 H         1 UNK         0.1335 
     79 H79       -75.1609   30.8809  -74.7355 H         1 UNK         0.0680 
     80 H80       -74.4032   29.5050  -73.9910 H         1 UNK         0.0680 
     81 H81       -73.4127   29.3957  -71.7295 H         1 UNK         0.1032 
     82 H82       -72.9297   30.7551  -70.7556 H         1 UNK         0.1032 
     83 H83       -71.2520   31.4232  -72.4780 H         1 UNK         0.0461 
     84 H84       -69.9298   28.3822  -73.0995 H         1 UNK         0.3453 
     85 H85       -69.1616   28.1657  -71.5463 H         1 UNK         0.3453 
     86 H86       -72.3483   29.1686  -74.0171 H         1 UNK         0.2984 
     87 H87       -72.0063   30.1184  -76.6630 H         1 UNK         0.0554 
     88 H88       -70.1628   29.2482  -78.1221 H         1 UNK         0.0847 
     89 H89       -69.0543   29.2984  -76.7520 H         1 UNK         0.0847 
     90 H90       -69.7424   30.7854  -77.3869 H         1 UNK         0.0847 
     91 H91       -72.4544   27.9683  -76.4864 H         1 UNK         0.3141 
     92 H92       -70.6854   25.1315  -75.9105 H         1 UNK         0.0743 
     93 H93       -72.4310   25.9920  -73.5463 H         1 UNK         0.0784 
     94 H94       -72.2411   24.3211  -74.0797 H         1 UNK         0.0784 
     95 H95       -70.8578   25.2230  -73.4811 H         1 UNK         0.0784 
     96 H96       -73.5430   25.6729  -75.8558 H         1 UNK         0.3213 
     97 H97       -73.8816   26.3169  -79.2680 H         1 UNK         0.0855 
     98 H98       -74.4558   23.5318  -78.1262 H         1 UNK         0.0814 
     99 H99       -73.5076   23.8632  -79.5685 H         1 UNK         0.0814 
    100 H100      -75.2207   24.2440  -79.5479 H         1 UNK         0.0814 
    101 H101      -75.9025   25.5020  -77.4973 H         1 UNK         0.3105 
    102 H102      -76.2680   28.5656  -75.6719 H         1 UNK         0.0547 
    103 H103      -77.5358   28.7585  -77.7998 H         1 UNK         0.0837 
    104 H104      -77.9924   27.0639  -77.7058 H         1 UNK         0.0837 
    105 H105      -78.5724   28.2055  -76.4941 H         1 UNK         0.0837 
    106 H106      -77.6572   26.1207  -75.3699 H         1 UNK         0.3020 
    107 H107      -75.4485   24.5756  -73.0088 H         1 UNK         0.1245 
    108 H108      -78.1831   25.9355  -72.8020 H         1 UNK         0.0781 
    109 H109      -77.9055   24.3692  -72.1007 H         1 UNK         0.0781 
    110 H110      -78.7396   27.1110  -70.4718 H         1 UNK         0.0836 
    111 H111      -77.4087   27.9325  -69.6935 H         1 UNK         0.0836 
    112 H112      -77.8123   23.8304  -74.5230 H         1 UNK         0.3022 
    113 H113      -76.0779   22.0967  -77.0535 H         1 UNK         0.0747 
    114 H114      -77.2524   20.0719  -76.2253 H         1 UNK         0.0793 
    115 H115      -75.8613   20.4209  -75.2137 H         1 UNK         0.0793 
    116 H116      -77.4759   20.8158  -74.6409 H         1 UNK         0.0793 
    117 H117      -78.8292   22.1226  -76.2637 H         1 UNK         0.3047 
    118 H118      -79.7313   25.2062  -77.7934 H         1 UNK         0.0822 
    119 H119      -81.3402   23.7472  -78.9878 H         1 UNK         0.0807 
    120 H120      -80.3797   22.3181  -78.6040 H         1 UNK         0.0807 
    121 H121      -79.7360   23.5563  -79.6733 H         1 UNK         0.0807 
    122 H122      -81.3190   23.2689  -76.4782 H         1 UNK         0.2946 
    123 H123      -82.2829   24.0090  -74.4106 H         1 UNK         0.1144 
    124 H124      -80.8905   21.9347  -74.3429 H         1 UNK         0.0793 
    125 H125      -81.4859   22.3302  -72.7444 H         1 UNK         0.0793 
    126 H126      -79.8104   22.6738  -73.1684 H         1 UNK         0.0793 
    127 H127      -80.7912   24.6090  -72.0702 H         1 UNK         0.2896 
@<TRIPOS>BOND
     1    1    2 1    
     2    1   67 1    
     3    1   68 1    
     4    1   69 1    
     5    2    3 2    
     6    2    4 am   BACKBONE|DICT|INTERRES
     7    4    5 1    
     8    4   70 1    
     9    5    6 1    
    10    5   65 1    
    11    5   71 1    
    12    6    7 1    
    13    6   72 1    
    14    6   73 1    
    15    7    8 1    
    16    8    9 1    
    17    8   74 1    
    18    8   75 1    
    19    9   10 ar   
    20    9   14 ar   
    21   10   11 ar   
    22   10   76 1    
    23   11   12 ar   
    24   11   48 1    
    25   12   13 ar   
    26   12   77 1    
    27   13   14 ar   
    28   13   15 1    
    29   14   78 1    
    30   15   16 1    
    31   15   79 1    
    32   15   80 1    
    33   16   17 1    
    34   17   18 1    
    35   17   81 1    
    36   17   82 1    
    37   18   19 1    
    38   18   22 1    
    39   18   83 1    
    40   19   20 am   BACKBONE|DICT|INTERRES
    41   19   21 2    
    42   20   84 1    
    43   20   85 1    
    44   22   23 am   BACKBONE|DICT|INTERRES
    45   22   86 1    
    46   23   24 2    
    47   23   25 1    
    48   25   26 1    
    49   25   27 1    
    50   25   87 1    
    51   26   88 1    
    52   26   89 1    
    53   26   90 1    
    54   27   28 am   BACKBONE|DICT|INTERRES
    55   27   91 1    
    56   28   29 2    
    57   28   30 1    
    58   30   31 1    
    59   30   32 1    
    60   30   92 1    
    61   31   93 1    
    62   31   94 1    
    63   31   95 1    
    64   32   33 am   BACKBONE|DICT|INTERRES
    65   32   96 1    
    66   33   34 2    
    67   33   35 1    
    68   35   36 1    
    69   35   37 1    
    70   35   97 1    
    71   36   98 1    
    72   36   99 1    
    73   36  100 1    
    74   37   38 am   BACKBONE|DICT|INTERRES
    75   37  101 1    
    76   38   39 2    
    77   38   40 1    
    78   40   41 1    
    79   40   42 1    
    80   40  102 1    
    81   41  103 1    
    82   41  104 1    
    83   41  105 1    
    84   42   43 am   BACKBONE|DICT|INTERRES
    85   42  106 1    
    86   43   44 2    
    87   43   45 1    
    88   45   46 1    
    89   45   49 1    
    90   45  107 1    
    91   46   47 1    
    92   46  108 1    
    93   46  109 1    
    94   47   48 1    
    95   48  110 1    
    96   48  111 1    
    97   49   50 am   BACKBONE|DICT|INTERRES
    98   49  112 1    
    99   50   51 2    
   100   50   52 1    
   101   52   53 1    
   102   52   54 1    
   103   52  113 1    
   104   53  114 1    
   105   53  115 1    
   106   53  116 1    
   107   54   55 am   BACKBONE|DICT|INTERRES
   108   54  117 1    
   109   55   56 2    
   110   55   57 1    
   111   57   58 1    
   112   57   59 1    
   113   57  118 1    
   114   58  119 1    
   115   58  120 1    
   116   58  121 1    
   117   59   60 am   BACKBONE|DICT|INTERRES
   118   59  122 1    
   119   60   61 2    
   120   60   62 1    
   121   62   63 1    
   122   62   64 1    
   123   62  123 1    
   124   63  124 1    
   125   63  125 1    
   126   63  126 1    
   127   64   65 am   BACKBONE|DICT|INTERRES
   128   64  127 1    
   129   65   66 2    
@<TRIPOS>SUBSTRUCTURE
     1 UNK         1 GROUP             0       ****    0 ROOT    
