@<TRIPOS>MOLECULE
3R135
127   129    1
SMALL
USER_CHARGES


@<TRIPOS>ATOM
      1 CA        -72.4967   24.4837  -72.6483 C.3       0 UNK        -0.1998 
      2 C         -73.8462   24.4546  -71.9478 C.2       0 UNK         0.4909 
      3 O         -73.9400   23.9765  -70.8174 O.2       0 UNK        -0.5240 
      4 N         -74.8877   24.9675  -72.6105 N.am      1 UNK        -0.4739 
      5 CA        -76.2713   24.9631  -72.1396 C.3       1 UNK         0.0864 
      6 C6        -77.0041   26.2440  -72.6139 C.3       11 UNK        -0.0881 
      7 S7        -78.7658   26.3547  -72.1527 S.3       11 UNK        -0.2682 
      8 C8        -78.8531   28.0230  -71.4208 C.3       11 UNK         0.0289 
      9 C9        -78.3437   29.1236  -72.3490 C.ar      11 UNK        -0.0687 
     10 C10       -78.8112   29.2319  -73.6635 C.ar      11 UNK        -0.0823 
     11 C11       -78.3571   30.2594  -74.4955 C.ar      11 UNK        -0.0830 
     12 C12       -77.4337   31.1878  -74.0041 C.ar      11 UNK        -0.1021 
     13 C13       -76.9543   31.0924  -72.6931 C.ar      11 UNK        -0.0753 
     14 C14       -77.4180   30.0581  -71.8738 C.ar      11 UNK        -0.0933 
     15 C15       -75.9827   32.1237  -72.1236 C.3       11 UNK         0.0166 
     16 S16       -74.6070   32.5383  -73.2500 S.3       11 UNK        -0.2615 
     17 C17       -73.3025   33.0336  -72.0664 C.3       11 UNK        -0.0865 
     18 CA        -72.0587   32.0941  -72.0981 C.3       10 UNK         0.0862 
     19 C         -70.9398   32.5516  -71.1138 C.2       10 UNK         0.5551 
     20 N         -70.1802   31.6451  -70.5112 N.am      10 UNK        -0.7319 
     21 O         -70.7341   33.7468  -70.9155 O.2       10 UNK        -0.5018 
     22 N         -72.4052   30.6622  -72.0275 N.am      10 UNK        -0.4509 
     23 C         -73.0525   30.0447  -71.0313 C.2       10 UNK         0.4899 
     24 O         -73.3624   30.5881  -69.9704 O.2       10 UNK        -0.4839 
     25 CA        -73.4607   28.5850  -71.3016 C.3       9 UNK         0.0222 
     26 CB        -74.3963   28.0189  -70.2161 C.3       9 UNK        -0.1966 
     27 N         -74.1140   28.4779  -72.6112 N.am      9 UNK        -0.4218 
     28 C         -73.5038   28.1051  -73.7417 C.2       9 UNK         0.5020 
     29 O         -72.3115   27.7984  -73.8079 O.2       9 UNK        -0.5274 
     30 CA        -74.3525   28.1280  -75.0196 C.3       8 UNK         0.0270 
     31 CB        -74.2927   29.5160  -75.6753 C.3       8 UNK        -0.1976 
     32 N         -73.8527   27.1388  -75.9742 N.am      8 UNK        -0.4313 
     33 C         -74.3232   25.8952  -76.0882 C.2       8 UNK         0.5041 
     34 O         -75.2452   25.4365  -75.4050 O.2       8 UNK        -0.5577 
     35 CA        -73.6983   25.0068  -77.1648 C.3       7 UNK         0.0284 
     36 CB        -72.9506   23.8154  -76.5436 C.3       7 UNK        -0.1958 
     37 N         -74.8305   24.5350  -77.9431 N.am      7 UNK        -0.4454 
     38 C         -74.9285   24.5217  -79.2755 C.2       7 UNK         0.5089 
     39 O         -73.9761   24.6597  -80.0435 O.2       7 UNK        -0.5125 
     40 CA        -76.3571   24.3857  -79.8378 C.3       6 UNK         0.0408 
     41 CB        -76.7124   22.9085  -80.0703 C.3       6 UNK        -0.1791 
     42 N         -77.3643   25.0017  -78.9618 N.am      6 UNK        -0.4762 
     43 C         -77.4543   26.3179  -78.6992 C.2       6 UNK         0.5007 
     44 O         -76.7541   27.1600  -79.2623 O.2       6 UNK        -0.5032 
     45 CA        -78.4624   26.7487  -77.6042 C.3       5 UNK         0.0783 
     46 C46       -78.9912   28.2026  -77.7693 C.3       11 UNK        -0.0857 
     47 S47       -77.8462   29.4569  -77.0921 S.3       11 UNK        -0.2512 
     48 C48       -78.8825   30.3870  -75.9167 C.3       11 UNK         0.0225 
     49 N         -79.5374   25.7647  -77.4166 N.am      5 UNK        -0.4615 
     50 C         -80.5437   25.5021  -78.2656 C.2       4 UNK         0.5053 
     51 O         -80.7047   26.0888  -79.3355 O.2       4 UNK        -0.5105 
     52 CA        -81.5233   24.3758  -77.8764 C.3       4 UNK         0.0263 
     53 CB        -81.4111   23.2015  -78.8638 C.3       4 UNK        -0.1981 
     54 N         -81.3066   23.8656  -76.5203 N.am      4 UNK        -0.4224 
     55 C         -81.6714   24.4747  -75.3863 C.2       3 UNK         0.4895 
     56 O         -82.3373   25.5090  -75.3500 O.2       3 UNK        -0.5091 
     57 CA        -81.1556   23.8607  -74.0731 C.3       3 UNK         0.0250 
     58 CB        -82.0479   22.6934  -73.6080 C.3       3 UNK        -0.1996 
     59 N         -79.7305   23.4870  -74.1074 N.am      3 UNK        -0.4254 
     60 C         -79.1200   22.5071  -74.7944 C.2       2 UNK         0.5004 
     61 O         -79.7198   21.7439  -75.5526 O.2       2 UNK        -0.5226 
     62 CA        -77.5837   22.3843  -74.6797 C.3       2 UNK         0.0269 
     63 CB        -76.9369   22.2598  -76.0706 C.3       2 UNK        -0.1926 
     64 N         -76.9411   23.4967  -73.9721 N.am      2 UNK        -0.4687 
     65 C         -76.9490   23.6789  -72.6440 C.2       1 UNK         0.5165 
     66 O         -77.4688   22.8971  -71.8475 O.2       1 UNK        -0.5079 
     67 H67       -72.1246   23.4699  -72.7932 H         1 UNK         0.0900 
     68 H68       -71.7739   25.0325  -72.0452 H         1 UNK         0.0900 
     69 H69       -72.5547   24.9680  -73.6223 H         1 UNK         0.0900 
     70 H70       -74.7711   25.2696  -73.5738 H         1 UNK         0.2959 
     71 H71       -76.2919   24.9448  -71.0474 H         1 UNK         0.1079 
     72 H72       -76.4826   27.1076  -72.2055 H         1 UNK         0.0837 
     73 H73       -76.9494   26.3523  -73.6974 H         1 UNK         0.0837 
     74 H74       -79.8898   28.2369  -71.1583 H         1 UNK         0.0685 
     75 H75       -78.2932   28.0162  -70.4842 H         1 UNK         0.0685 
     76 H76       -79.5323   28.5175  -74.0370 H         1 UNK         0.1434 
     77 H77       -77.0923   31.9910  -74.6429 H         1 UNK         0.1329 
     78 H78       -77.0737   29.9943  -70.8509 H         1 UNK         0.1335 
     79 H79       -75.5750   31.7569  -71.1812 H         1 UNK         0.0680 
     80 H80       -76.5315   33.0359  -71.8866 H         1 UNK         0.0680 
     81 H81       -73.7104   33.0901  -71.0560 H         1 UNK         0.1032 
     82 H82       -73.0057   34.0534  -72.3178 H         1 UNK         0.1032 
     83 H83       -71.6083   32.2134  -73.0840 H         1 UNK         0.0461 
     84 H84       -69.4513   31.9466  -69.8839 H         1 UNK         0.3453 
     85 H85       -70.3363   30.6632  -70.6728 H         1 UNK         0.3453 
     86 H86       -72.1717   30.1177  -72.8459 H         1 UNK         0.2984 
     87 H87       -72.5465   27.9881  -71.2870 H         1 UNK         0.0554 
     88 H88       -75.3277   28.5795  -70.1464 H         1 UNK         0.0847 
     89 H89       -73.9215   28.0551  -69.2347 H         1 UNK         0.0847 
     90 H90       -74.6453   26.9764  -70.4090 H         1 UNK         0.0847 
     91 H91       -75.0661   28.8125  -72.6632 H         1 UNK         0.3141 
     92 H92       -75.3935   27.9116  -74.7694 H         1 UNK         0.0743 
     93 H93       -74.8161   29.5262  -76.6314 H         1 UNK         0.0784 
     94 H94       -74.7724   30.2624  -75.0436 H         1 UNK         0.0784 
     95 H95       -73.2670   29.8429  -75.8514 H         1 UNK         0.0784 
     96 H96       -73.0559   27.4188  -76.5283 H         1 UNK         0.3213 
     97 H97       -73.0174   25.5912  -77.7878 H         1 UNK         0.0855 
     98 H98       -73.5829   23.2480  -75.8593 H         1 UNK         0.0814 
     99 H99       -72.0799   24.1540  -75.9813 H         1 UNK         0.0814 
    100 H100      -72.5936   23.1304  -77.3127 H         1 UNK         0.0814 
    101 H101      -75.6813   24.4598  -77.4038 H         1 UNK         0.3105 
    102 H102      -76.3871   24.9006  -80.8003 H         1 UNK         0.0547 
    103 H103      -75.9978   22.4405  -80.7489 H         1 UNK         0.0837 
    104 H104      -76.7016   22.3346  -79.1433 H         1 UNK         0.0837 
    105 H105      -77.6996   22.8029  -80.5205 H         1 UNK         0.0837 
    106 H106      -78.0113   24.3794  -78.5016 H         1 UNK         0.3020 
    107 H107      -77.8924   26.7133  -76.6733 H         1 UNK         0.1245 
    108 H108      -79.9532   28.2984  -77.2657 H         1 UNK         0.0781 
    109 H109      -79.1917   28.4330  -78.8173 H         1 UNK         0.0781 
    110 H110      -79.9241   30.0681  -75.9591 H         1 UNK         0.0836 
    111 H111      -78.8861   31.4362  -76.2160 H         1 UNK         0.0836 
    112 H112      -79.5090   25.2406  -76.5549 H         1 UNK         0.3022 
    113 H113      -82.5336   24.7855  -77.9387 H         1 UNK         0.0747 
    114 H114      -82.1391   22.4225  -78.6365 H         1 UNK         0.0793 
    115 H115      -81.5997   23.5287  -79.8873 H         1 UNK         0.0793 
    116 H116      -80.4188   22.7488  -78.8431 H         1 UNK         0.0793 
    117 H117      -80.7743   23.0025  -76.4256 H         1 UNK         0.3047 
    118 H118      -81.2306   24.6439  -73.3167 H         1 UNK         0.0822 
    119 H119      -81.7135   22.2984  -72.6487 H         1 UNK         0.0807 
    120 H120      -82.0583   21.8711  -74.3238 H         1 UNK         0.0807 
    121 H121      -83.0802   23.0221  -73.4809 H         1 UNK         0.0807 
    122 H122      -79.1357   24.0666  -73.5308 H         1 UNK         0.2946 
    123 H123      -77.3842   21.4635  -74.1270 H         1 UNK         0.1144 
    124 H124      -77.3109   21.3848  -76.6041 H         1 UNK         0.0793 
    125 H125      -75.8548   22.1500  -75.9982 H         1 UNK         0.0793 
    126 H126      -77.1484   23.1328  -76.6858 H         1 UNK         0.0793 
    127 H127      -76.4535   24.1819  -74.5438 H         1 UNK         0.2896 
@<TRIPOS>BOND
     1    1    2 1    
     2    1   67 1    
     3    1   68 1    
     4    1   69 1    
     5    2    3 2    
     6    2    4 am   BACKBONE|DICT|INTERRES
     7    4    5 1    
     8    4   70 1    
     9    5    6 1    
    10    5   65 1    
    11    5   71 1    
    12    6    7 1    
    13    6   72 1    
    14    6   73 1    
    15    7    8 1    
    16    8    9 1    
    17    8   74 1    
    18    8   75 1    
    19    9   10 ar   
    20    9   14 ar   
    21   10   11 ar   
    22   10   76 1    
    23   11   12 ar   
    24   11   48 1    
    25   12   13 ar   
    26   12   77 1    
    27   13   14 ar   
    28   13   15 1    
    29   14   78 1    
    30   15   16 1    
    31   15   79 1    
    32   15   80 1    
    33   16   17 1    
    34   17   18 1    
    35   17   81 1    
    36   17   82 1    
    37   18   19 1    
    38   18   22 1    
    39   18   83 1    
    40   19   20 am   BACKBONE|DICT|INTERRES
    41   19   21 2    
    42   20   84 1    
    43   20   85 1    
    44   22   23 am   BACKBONE|DICT|INTERRES
    45   22   86 1    
    46   23   24 2    
    47   23   25 1    
    48   25   26 1    
    49   25   27 1    
    50   25   87 1    
    51   26   88 1    
    52   26   89 1    
    53   26   90 1    
    54   27   28 am   BACKBONE|DICT|INTERRES
    55   27   91 1    
    56   28   29 2    
    57   28   30 1    
    58   30   31 1    
    59   30   32 1    
    60   30   92 1    
    61   31   93 1    
    62   31   94 1    
    63   31   95 1    
    64   32   33 am   BACKBONE|DICT|INTERRES
    65   32   96 1    
    66   33   34 2    
    67   33   35 1    
    68   35   36 1    
    69   35   37 1    
    70   35   97 1    
    71   36   98 1    
    72   36   99 1    
    73   36  100 1    
    74   37   38 am   BACKBONE|DICT|INTERRES
    75   37  101 1    
    76   38   39 2    
    77   38   40 1    
    78   40   41 1    
    79   40   42 1    
    80   40  102 1    
    81   41  103 1    
    82   41  104 1    
    83   41  105 1    
    84   42   43 am   BACKBONE|DICT|INTERRES
    85   42  106 1    
    86   43   44 2    
    87   43   45 1    
    88   45   46 1    
    89   45   49 1    
    90   45  107 1    
    91   46   47 1    
    92   46  108 1    
    93   46  109 1    
    94   47   48 1    
    95   48  110 1    
    96   48  111 1    
    97   49   50 am   BACKBONE|DICT|INTERRES
    98   49  112 1    
    99   50   51 2    
   100   50   52 1    
   101   52   53 1    
   102   52   54 1    
   103   52  113 1    
   104   53  114 1    
   105   53  115 1    
   106   53  116 1    
   107   54   55 am   BACKBONE|DICT|INTERRES
   108   54  117 1    
   109   55   56 2    
   110   55   57 1    
   111   57   58 1    
   112   57   59 1    
   113   57  118 1    
   114   58  119 1    
   115   58  120 1    
   116   58  121 1    
   117   59   60 am   BACKBONE|DICT|INTERRES
   118   59  122 1    
   119   60   61 2    
   120   60   62 1    
   121   62   63 1    
   122   62   64 1    
   123   62  123 1    
   124   63  124 1    
   125   63  125 1    
   126   63  126 1    
   127   64   65 am   BACKBONE|DICT|INTERRES
   128   64  127 1    
   129   65   66 2    
@<TRIPOS>SUBSTRUCTURE
     1 UNK         1 GROUP             0       ****    0 ROOT    
