@<TRIPOS>MOLECULE
3R135
127   129    1
SMALL
USER_CHARGES


@<TRIPOS>ATOM
      1 CA        -76.8631   22.4891  -73.3349 C.3       0 UNK        -0.1998 
      2 C         -78.2022   23.1240  -72.9928 C.2       0 UNK         0.4909 
      3 O         -78.8196   23.7339  -73.8644 O.2       0 UNK        -0.5240 
      4 N         -78.6572   22.9691  -71.7396 N.am      1 UNK        -0.4739 
      5 CA        -79.8482   23.5412  -71.0727 C.3       1 UNK         0.0864 
      6 C6        -79.6623   25.0391  -70.6746 C.3       11 UNK        -0.0881 
      7 S7        -80.0810   26.3011  -71.9345 S.3       11 UNK        -0.2682 
      8 C8        -78.4772   26.5814  -72.7414 C.3       11 UNK         0.0289 
      9 C9        -77.9973   28.0142  -72.6090 C.ar      11 UNK        -0.0687 
     10 C10       -78.3656   28.9658  -73.5639 C.ar      11 UNK        -0.0823 
     11 C11       -77.8162   30.2501  -73.5270 C.ar      11 UNK        -0.0830 
     12 C12       -76.9503   30.6003  -72.4880 C.ar      11 UNK        -0.1021 
     13 C13       -76.5734   29.6554  -71.5314 C.ar      11 UNK        -0.0753 
     14 C14       -77.1094   28.3660  -71.5891 C.ar      11 UNK        -0.0933 
     15 C15       -75.5417   30.0060  -70.4722 C.3       11 UNK         0.0166 
     16 S16       -73.8516   29.6739  -71.0709 S.3       11 UNK        -0.2615 
     17 C17       -73.4558   31.1905  -72.0147 C.3       11 UNK        -0.0865 
     18 CA        -73.5923   31.0483  -73.5619 C.3       10 UNK         0.0862 
     19 C         -73.3698   32.3983  -74.3087 C.2       10 UNK         0.5551 
     20 N         -72.8275   32.4010  -75.5208 N.am      10 UNK        -0.7319 
     21 O         -73.7161   33.4601  -73.7962 O.2       10 UNK        -0.5018 
     22 N         -72.8528   29.9113  -74.1326 N.am      10 UNK        -0.4509 
     23 C         -71.5330   29.6922  -74.0723 C.2       10 UNK         0.4899 
     24 O         -70.7317   30.4317  -73.4986 O.2       10 UNK        -0.4839 
     25 CA        -71.0359   28.4301  -74.8036 C.3       9 UNK         0.0222 
     26 CB        -69.5941   28.0267  -74.4276 C.3       9 UNK        -0.1966 
     27 N         -71.9707   27.3084  -74.6572 N.am      9 UNK        -0.4218 
     28 C         -72.2930   26.6446  -73.5355 C.2       9 UNK         0.5020 
     29 O         -71.7461   26.8142  -72.4452 O.2       9 UNK        -0.5274 
     30 CA        -73.4352   25.6156  -73.6421 C.3       8 UNK         0.0270 
     31 CB        -74.7441   26.2197  -73.1107 C.3       8 UNK        -0.1976 
     32 N         -73.6613   25.1289  -75.0049 N.am      8 UNK        -0.4313 
     33 C         -72.8168   24.3476  -75.6924 C.2       8 UNK         0.5041 
     34 O         -71.7762   23.8804  -75.2283 O.2       8 UNK        -0.5577 
     35 CA        -73.1844   24.0703  -77.1571 C.3       7 UNK         0.0284 
     36 CB        -74.1907   22.9123  -77.2529 C.3       7 UNK        -0.1958 
     37 N         -73.7276   25.2659  -77.8105 N.am      7 UNK        -0.4454 
     38 C         -72.9791   26.2891  -78.2487 C.2       7 UNK         0.5089 
     39 O         -71.7505   26.3152  -78.1803 O.2       7 UNK        -0.5125 
     40 CA        -73.7177   27.4955  -78.8572 C.3       6 UNK         0.0408 
     41 CB        -73.9028   27.3025  -80.3705 C.3       6 UNK        -0.1791 
     42 N         -75.0190   27.7580  -78.2374 N.am      6 UNK        -0.4762 
     43 C         -75.1864   28.2247  -76.9913 C.2       6 UNK         0.5007 
     44 O         -74.2551   28.4867  -76.2285 O.2       6 UNK        -0.5032 
     45 CA        -76.6404   28.3547  -76.4923 C.3       5 UNK         0.0783 
     46 C46       -77.2960   29.6990  -76.9074 C.3       11 UNK        -0.0857 
     47 S47       -76.7728   31.1375  -75.9145 S.3       11 UNK        -0.2512 
     48 C48       -78.0849   31.2383  -74.6492 C.3       11 UNK         0.0225 
     49 N         -77.4964   27.2308  -76.8927 N.am      5 UNK        -0.4615 
     50 C         -77.2751   25.9301  -76.6691 C.2       4 UNK         0.5053 
     51 O         -76.2609   25.4894  -76.1262 O.2       4 UNK        -0.5105 
     52 CA        -78.4015   24.9834  -77.1166 C.3       4 UNK         0.0263 
     53 CB        -77.9850   23.5020  -77.1089 C.3       4 UNK        -0.1981 
     54 N         -79.5694   25.1692  -76.2534 N.am      4 UNK        -0.4224 
     55 C         -80.5025   26.1161  -76.4352 C.2       3 UNK         0.4895 
     56 O         -80.4772   26.9018  -77.3853 O.2       3 UNK        -0.5091 
     57 CA        -81.6064   26.2635  -75.3689 C.3       3 UNK         0.0250 
     58 CB        -82.9283   26.8130  -75.9477 C.3       3 UNK        -0.1996 
     59 N         -81.8332   25.0585  -74.5619 N.am      3 UNK        -0.4254 
     60 C         -82.3573   23.8834  -74.9461 C.2       2 UNK         0.5004 
     61 O         -82.7538   23.6477  -76.0883 O.2       2 UNK        -0.5226 
     62 CA        -82.4253   22.7840  -73.8658 C.3       2 UNK         0.0269 
     63 CB        -82.4737   21.3682  -74.4691 C.3       2 UNK        -0.1926 
     64 N         -81.2552   22.8866  -72.9965 N.am      2 UNK        -0.4687 
     65 C         -81.2319   23.2455  -71.7110 C.2       1 UNK         0.5165 
     66 O         -82.2487   23.3641  -71.0263 O.2       1 UNK        -0.5079 
     67 H67       -76.3188   22.1757  -72.4426 H         1 UNK         0.0900 
     68 H68       -76.2404   23.2015  -73.8786 H         1 UNK         0.0900 
     69 H69       -77.0154   21.6168  -73.9710 H         1 UNK         0.0900 
     70 H70       -78.0951   22.3997  -71.1214 H         1 UNK         0.2959 
     71 H71       -79.8846   22.9900  -70.1311 H         1 UNK         0.1079 
     72 H72       -80.3033   25.2493  -69.8166 H         1 UNK         0.0837 
     73 H73       -78.6492   25.2111  -70.3086 H         1 UNK         0.0837 
     74 H74       -77.7265   25.9047  -72.3357 H         1 UNK         0.0685 
     75 H75       -78.5653   26.3294  -73.7978 H         1 UNK         0.0685 
     76 H76       -79.0281   28.6866  -74.3715 H         1 UNK         0.1434 
     77 H77       -76.5190   31.5916  -72.4612 H         1 UNK         0.1329 
     78 H78       -76.8023   27.6242  -70.8647 H         1 UNK         0.1335 
     79 H79       -75.7171   29.4084  -69.5763 H         1 UNK         0.0680 
     80 H80       -75.6411   31.0478  -70.1642 H         1 UNK         0.0680 
     81 H81       -74.0908   32.0000  -71.6517 H         1 UNK         0.1032 
     82 H82       -72.4382   31.4872  -71.7569 H         1 UNK         0.1032 
     83 H83       -74.6312   30.8048  -73.7699 H         1 UNK         0.0461 
     84 H84       -72.6959   33.2759  -76.0030 H         1 UNK         0.3453 
     85 H85       -72.5624   31.5342  -75.9595 H         1 UNK         0.3453 
     86 H86       -73.4104   29.2788  -74.6999 H         1 UNK         0.2984 
     87 H87       -71.0373   28.6778  -75.8662 H         1 UNK         0.0554 
     88 H88       -69.2834   27.1259  -74.9569 H         1 UNK         0.0847 
     89 H89       -69.4882   27.8423  -73.3582 H         1 UNK         0.0847 
     90 H90       -68.8888   28.8163  -74.6896 H         1 UNK         0.0847 
     91 H91       -72.5296   27.1097  -75.4766 H         1 UNK         0.3141 
     92 H92       -73.1700   24.7605  -73.0169 H         1 UNK         0.0743 
     93 H93       -74.6299   26.5539  -72.0786 H         1 UNK         0.0784 
     94 H94       -75.0587   27.0836  -73.6980 H         1 UNK         0.0784 
     95 H95       -75.5514   25.4889  -73.1305 H         1 UNK         0.0784 
     96 H96       -74.5387   25.3978  -75.4483 H         1 UNK         0.3213 
     97 H97       -72.2747   23.7709  -77.6828 H         1 UNK         0.0855 
     98 H98       -74.4876   22.7236  -78.2846 H         1 UNK         0.0814 
     99 H99       -75.0907   23.1080  -76.6704 H         1 UNK         0.0814 
    100 H100      -73.7543   21.9899  -76.8673 H         1 UNK         0.0814 
    101 H101      -74.7340   25.3529  -77.8405 H         1 UNK         0.3105 
    102 H102      -73.0898   28.3761  -78.7040 H         1 UNK         0.0547 
    103 H103      -74.5409   26.4470  -80.5960 H         1 UNK         0.0837 
    104 H104      -74.3464   28.1847  -80.8325 H         1 UNK         0.0837 
    105 H105      -72.9436   27.1308  -80.8612 H         1 UNK         0.0837 
    106 H106      -75.8407   27.5571  -78.7896 H         1 UNK         0.3020 
    107 H107      -76.5775   28.3134  -75.4048 H         1 UNK         0.1245 
    108 H108      -78.3822   29.6275  -76.8306 H         1 UNK         0.0781 
    109 H109      -77.1013   29.9171  -77.9593 H         1 UNK         0.0781 
    110 H110      -78.1082   32.2523  -74.2471 H         1 UNK         0.0836 
    111 H111      -79.0651   31.0681  -75.0968 H         1 UNK         0.0836 
    112 H112      -78.3819   27.4735  -77.3218 H         1 UNK         0.3022 
    113 H113      -78.6649   25.2385  -78.1456 H         1 UNK         0.0747 
    114 H114      -77.1927   23.3213  -77.8355 H         1 UNK         0.0793 
    115 H115      -78.8205   22.8543  -77.3757 H         1 UNK         0.0793 
    116 H116      -77.6152   23.1837  -76.1348 H         1 UNK         0.0793 
    117 H117      -79.5769   24.6157  -75.3997 H         1 UNK         0.3047 
    118 H118      -81.2309   27.0138  -74.6722 H         1 UNK         0.0822 
    119 H119      -82.7817   27.7980  -76.3927 H         1 UNK         0.0807 
    120 H120      -83.6872   26.9207  -75.1726 H         1 UNK         0.0807 
    121 H121      -83.3315   26.1649  -76.7261 H         1 UNK         0.0807 
    122 H122      -81.5035   25.1224  -73.6070 H         1 UNK         0.2946 
    123 H123      -83.3419   22.9519  -73.2960 H         1 UNK         0.1144 
    124 H124      -82.5049   20.6072  -73.6891 H         1 UNK         0.0793 
    125 H125      -81.6043   21.1692  -75.0971 H         1 UNK         0.0793 
    126 H126      -83.3630   21.2343  -75.0864 H         1 UNK         0.0793 
    127 H127      -80.3554   22.9218  -73.4724 H         1 UNK         0.2896 
@<TRIPOS>BOND
     1    1    2 1    
     2    1   67 1    
     3    1   68 1    
     4    1   69 1    
     5    2    3 2    
     6    2    4 am   BACKBONE|DICT|INTERRES
     7    4    5 1    
     8    4   70 1    
     9    5    6 1    
    10    5   65 1    
    11    5   71 1    
    12    6    7 1    
    13    6   72 1    
    14    6   73 1    
    15    7    8 1    
    16    8    9 1    
    17    8   74 1    
    18    8   75 1    
    19    9   10 ar   
    20    9   14 ar   
    21   10   11 ar   
    22   10   76 1    
    23   11   12 ar   
    24   11   48 1    
    25   12   13 ar   
    26   12   77 1    
    27   13   14 ar   
    28   13   15 1    
    29   14   78 1    
    30   15   16 1    
    31   15   79 1    
    32   15   80 1    
    33   16   17 1    
    34   17   18 1    
    35   17   81 1    
    36   17   82 1    
    37   18   19 1    
    38   18   22 1    
    39   18   83 1    
    40   19   20 am   BACKBONE|DICT|INTERRES
    41   19   21 2    
    42   20   84 1    
    43   20   85 1    
    44   22   23 am   BACKBONE|DICT|INTERRES
    45   22   86 1    
    46   23   24 2    
    47   23   25 1    
    48   25   26 1    
    49   25   27 1    
    50   25   87 1    
    51   26   88 1    
    52   26   89 1    
    53   26   90 1    
    54   27   28 am   BACKBONE|DICT|INTERRES
    55   27   91 1    
    56   28   29 2    
    57   28   30 1    
    58   30   31 1    
    59   30   32 1    
    60   30   92 1    
    61   31   93 1    
    62   31   94 1    
    63   31   95 1    
    64   32   33 am   BACKBONE|DICT|INTERRES
    65   32   96 1    
    66   33   34 2    
    67   33   35 1    
    68   35   36 1    
    69   35   37 1    
    70   35   97 1    
    71   36   98 1    
    72   36   99 1    
    73   36  100 1    
    74   37   38 am   BACKBONE|DICT|INTERRES
    75   37  101 1    
    76   38   39 2    
    77   38   40 1    
    78   40   41 1    
    79   40   42 1    
    80   40  102 1    
    81   41  103 1    
    82   41  104 1    
    83   41  105 1    
    84   42   43 am   BACKBONE|DICT|INTERRES
    85   42  106 1    
    86   43   44 2    
    87   43   45 1    
    88   45   46 1    
    89   45   49 1    
    90   45  107 1    
    91   46   47 1    
    92   46  108 1    
    93   46  109 1    
    94   47   48 1    
    95   48  110 1    
    96   48  111 1    
    97   49   50 am   BACKBONE|DICT|INTERRES
    98   49  112 1    
    99   50   51 2    
   100   50   52 1    
   101   52   53 1    
   102   52   54 1    
   103   52  113 1    
   104   53  114 1    
   105   53  115 1    
   106   53  116 1    
   107   54   55 am   BACKBONE|DICT|INTERRES
   108   54  117 1    
   109   55   56 2    
   110   55   57 1    
   111   57   58 1    
   112   57   59 1    
   113   57  118 1    
   114   58  119 1    
   115   58  120 1    
   116   58  121 1    
   117   59   60 am   BACKBONE|DICT|INTERRES
   118   59  122 1    
   119   60   61 2    
   120   60   62 1    
   121   62   63 1    
   122   62   64 1    
   123   62  123 1    
   124   63  124 1    
   125   63  125 1    
   126   63  126 1    
   127   64   65 am   BACKBONE|DICT|INTERRES
   128   64  127 1    
   129   65   66 2    
@<TRIPOS>SUBSTRUCTURE
     1 UNK         1 GROUP             0       ****    0 ROOT    
