@<TRIPOS>MOLECULE
3R135
127   129    1
SMALL
USER_CHARGES


@<TRIPOS>ATOM
      1 CA        -83.0689   23.2937  -74.3547 C.3       0 UNK        -0.1998 
      2 C         -81.9081   22.9285  -73.4327 C.2       0 UNK         0.4909 
      3 O         -81.4543   21.7872  -73.4675 O.2       0 UNK        -0.5240 
      4 N         -81.3948   23.8358  -72.5890 N.am      1 UNK        -0.4739 
      5 CA        -81.6914   25.2698  -72.4909 C.3       1 UNK         0.0864 
      6 C6        -81.0747   25.8978  -71.2084 C.3       11 UNK        -0.0881 
      7 S7        -79.3400   25.4149  -70.8608 S.3       11 UNK        -0.2682 
      8 C8        -78.8225   26.6769  -69.6561 C.3       11 UNK         0.0289 
      9 C9        -77.9188   27.7324  -70.2800 C.ar      11 UNK        -0.0687 
     10 C10       -78.4372   28.6470  -71.2004 C.ar      11 UNK        -0.0823 
     11 C11       -77.6235   29.6445  -71.7429 C.ar      11 UNK        -0.0830 
     12 C12       -76.2955   29.7513  -71.3267 C.ar      11 UNK        -0.1021 
     13 C13       -75.7471   28.8186  -70.4439 C.ar      11 UNK        -0.0753 
     14 C14       -76.5669   27.8103  -69.9225 C.ar      11 UNK        -0.0933 
     15 C15       -74.2792   28.9099  -70.0400 C.3       11 UNK         0.0166 
     16 S16       -73.1402   28.6671  -71.4495 S.3       11 UNK        -0.2615 
     17 C17       -72.8608   30.3748  -72.0463 C.3       11 UNK        -0.0865 
     18 CA        -73.4121   30.6231  -73.4816 C.3       10 UNK         0.0862 
     19 C         -73.4994   32.1357  -73.8525 C.2       10 UNK         0.5551 
     20 N         -73.3556   32.5149  -75.1167 N.am      10 UNK        -0.7319 
     21 O         -73.7348   32.9789  -72.9905 O.2       10 UNK        -0.5018 
     22 N         -72.7818   29.7711  -74.5015 N.am      10 UNK        -0.4509 
     23 C         -71.5127   29.8070  -74.9246 C.2       10 UNK         0.4899 
     24 O         -70.6540   30.5718  -74.4816 O.2       10 UNK        -0.4839 
     25 CA        -71.1700   28.8105  -76.0488 C.3       9 UNK         0.0222 
     26 CB        -69.6926   28.8673  -76.4933 C.3       9 UNK        -0.1966 
     27 N         -71.5774   27.4434  -75.7053 N.am      9 UNK        -0.4218 
     28 C         -71.1174   26.6840  -74.6983 C.2       9 UNK         0.5020 
     29 O         -70.1906   27.0112  -73.9555 O.2       9 UNK        -0.5274 
     30 CA        -71.8065   25.3278  -74.4579 C.3       8 UNK         0.0270 
     31 CB        -72.5822   25.3527  -73.1300 C.3       8 UNK        -0.1976 
     32 N         -72.7215   24.9309  -75.5317 N.am      8 UNK        -0.4313 
     33 C         -72.3487   24.3931  -76.7001 C.2       8 UNK         0.5041 
     34 O         -71.1783   24.1582  -77.0030 O.2       8 UNK        -0.5577 
     35 CA        -73.4688   24.0764  -77.7078 C.3       7 UNK         0.0284 
     36 CB        -74.1518   22.7444  -77.3597 C.3       7 UNK        -0.1958 
     37 N         -74.4773   25.1365  -77.8107 N.am      7 UNK        -0.4454 
     38 C         -74.2353   26.3710  -78.2750 C.2       7 UNK         0.5089 
     39 O         -73.1303   26.7598  -78.6527 O.2       7 UNK        -0.5125 
     40 CA        -75.4207   27.3489  -78.2978 C.3       6 UNK         0.0408 
     41 CB        -76.3056   27.1140  -79.5322 C.3       6 UNK        -0.1791 
     42 N         -76.2301   27.2708  -77.0811 N.am      6 UNK        -0.4762 
     43 C         -75.8156   27.6969  -75.8786 C.2       6 UNK         0.5007 
     44 O         -74.7081   28.1951  -75.6815 O.2       6 UNK        -0.5032 
     45 CA        -76.7849   27.4898  -74.6944 C.3       5 UNK         0.0783 
     46 C46       -77.9510   28.5152  -74.7409 C.3       11 UNK        -0.0857 
     47 S47       -77.4321   30.2417  -74.4368 S.3       11 UNK        -0.2512 
     48 C48       -78.1647   30.5895  -72.8033 C.3       11 UNK         0.0225 
     49 N         -77.3018   26.1164  -74.6410 N.am      5 UNK        -0.4615 
     50 C         -76.5841   24.9831  -74.6861 C.2       4 UNK         0.5053 
     51 O         -75.3570   24.9449  -74.6685 O.2       4 UNK        -0.5105 
     52 CA        -77.3611   23.6670  -74.8698 C.3       4 UNK         0.0263 
     53 CB        -77.7704   23.0768  -73.5144 C.3       4 UNK        -0.1981 
     54 N         -78.5451   23.8220  -75.7178 N.am      4 UNK        -0.4224 
     55 C         -78.5242   24.2048  -77.0049 C.2       3 UNK         0.4895 
     56 O         -77.4916   24.3767  -77.6536 O.2       3 UNK        -0.5091 
     57 CA        -79.8821   24.5515  -77.6258 C.3       3 UNK         0.0250 
     58 CB        -80.7362   23.2940  -77.8717 C.3       3 UNK        -0.1996 
     59 N         -80.5547   25.4826  -76.7250 N.am      3 UNK        -0.4254 
     60 C         -81.5666   26.3114  -76.9844 C.2       2 UNK         0.5004 
     61 O         -82.1514   26.3573  -78.0675 O.2       2 UNK        -0.5226 
     62 CA        -81.9810   27.2484  -75.8215 C.3       2 UNK         0.0269 
     63 CB        -83.2432   28.0676  -76.1501 C.3       2 UNK        -0.1926 
     64 N         -82.1874   26.5635  -74.5331 N.am      2 UNK        -0.4687 
     65 C         -81.2382   25.9992  -73.7709 C.2       1 UNK         0.5165 
     66 O         -80.0463   25.9879  -74.0826 O.2       1 UNK        -0.5079 
     67 H67       -83.5982   22.3924  -74.6637 H         1 UNK         0.0900 
     68 H68       -83.7956   23.9387  -73.8638 H         1 UNK         0.0900 
     69 H69       -82.7062   23.7866  -75.2556 H         1 UNK         0.0900 
     70 H70       -80.6278   23.5478  -71.9975 H         1 UNK         0.2959 
     71 H71       -82.7732   25.3834  -72.4025 H         1 UNK         0.1079 
     72 H72       -81.6668   25.5875  -70.3459 H         1 UNK         0.0837 
     73 H73       -81.1572   26.9855  -71.2355 H         1 UNK         0.0837 
     74 H74       -79.6953   27.1568  -69.2112 H         1 UNK         0.0685 
     75 H75       -78.3067   26.1740  -68.8368 H         1 UNK         0.0685 
     76 H76       -79.4717   28.5738  -71.5034 H         1 UNK         0.1434 
     77 H77       -75.6827   30.5490  -71.7162 H         1 UNK         0.1329 
     78 H78       -76.1566   27.0943  -69.2237 H         1 UNK         0.1335 
     79 H79       -74.0501   28.1469  -69.2946 H         1 UNK         0.0680 
     80 H80       -74.0894   29.8665  -69.5521 H         1 UNK         0.0680 
     81 H81       -73.3100   31.0693  -71.3354 H         1 UNK         0.1032 
     82 H82       -71.7901   30.5810  -72.0131 H         1 UNK         0.1032 
     83 H83       -74.4505   30.2975  -73.4922 H         1 UNK         0.0461 
     84 H84       -73.1808   31.8317  -75.8354 H         1 UNK         0.3453 
     85 H85       -73.4247   33.4925  -75.3515 H         1 UNK         0.3453 
     86 H86       -73.4205   29.1152  -74.9515 H         1 UNK         0.2984 
     87 H87       -71.7787   29.0964  -76.9081 H         1 UNK         0.0554 
     88 H88       -69.4369   29.8611  -76.8625 H         1 UNK         0.0847 
     89 H89       -69.4940   28.1609  -77.2992 H         1 UNK         0.0847 
     90 H90       -69.0093   28.6429  -75.6738 H         1 UNK         0.0847 
     91 H91       -72.3517   27.0753  -76.2420 H         1 UNK         0.3141 
     92 H92       -71.0201   24.5746  -74.3768 H         1 UNK         0.0743 
     93 H93       -73.3820   26.0945  -73.1485 H         1 UNK         0.0784 
     94 H94       -73.0305   24.3833  -72.9122 H         1 UNK         0.0784 
     95 H95       -71.9267   25.6032  -72.2948 H         1 UNK         0.0784 
     96 H96       -73.7182   25.0368  -75.3344 H         1 UNK         0.3213 
     97 H97       -73.0061   23.9707  -78.6916 H         1 UNK         0.0855 
     98 H98       -74.5935   22.7663  -76.3639 H         1 UNK         0.0814 
     99 H99       -73.4327   21.9244  -77.3763 H         1 UNK         0.0814 
    100 H100      -74.9397   22.5005  -78.0727 H         1 UNK         0.0814 
    101 H101      -75.4272   24.9018  -77.5423 H         1 UNK         0.3105 
    102 H102      -75.0151   28.3607  -78.3669 H         1 UNK         0.0547 
    103 H103      -75.7236   27.2098  -80.4498 H         1 UNK         0.0837 
    104 H104      -76.7502   26.1185  -79.5342 H         1 UNK         0.0837 
    105 H105      -77.1142   27.8429  -79.5858 H         1 UNK         0.0837 
    106 H106      -77.1245   26.8079  -77.1549 H         1 UNK         0.3020 
    107 H107      -76.2178   27.6473  -73.7736 H         1 UNK         0.1245 
    108 H108      -78.7057   28.2504  -74.0007 H         1 UNK         0.0781 
    109 H109      -78.4670   28.4749  -75.7019 H         1 UNK         0.0781 
    110 H110      -79.2515   30.5218  -72.8731 H         1 UNK         0.0836 
    111 H111      -77.9379   31.6190  -72.5226 H         1 UNK         0.0836 
    112 H112      -78.3101   26.0316  -74.5384 H         1 UNK         0.3022 
    113 H113      -76.6963   22.9550  -75.3610 H         1 UNK         0.0747 
    114 H114      -78.2284   22.0942  -73.6297 H         1 UNK         0.0793 
    115 H115      -76.9055   22.9590  -72.8600 H         1 UNK         0.0793 
    116 H116      -78.4835   23.7196  -73.0020 H         1 UNK         0.0793 
    117 H117      -79.4356   23.6883  -75.2627 H         1 UNK         0.3047 
    118 H118      -79.7021   25.0540  -78.5787 H         1 UNK         0.0822 
    119 H119      -81.6779   23.5442  -78.3606 H         1 UNK         0.0807 
    120 H120      -80.9718   22.7707  -76.9444 H         1 UNK         0.0807 
    121 H121      -80.2133   22.5906  -78.5209 H         1 UNK         0.0807 
    122 H122      -80.1528   25.5658  -75.7937 H         1 UNK         0.2946 
    123 H123      -81.1581   27.9555  -75.6934 H         1 UNK         0.1144 
    124 H124      -83.4777   28.7741  -75.3535 H         1 UNK         0.0793 
    125 H125      -84.1126   27.4259  -76.2983 H         1 UNK         0.0793 
    126 H126      -83.1077   28.6499  -77.0627 H         1 UNK         0.0793 
    127 H127      -83.1475   26.5104  -74.2238 H         1 UNK         0.2896 
@<TRIPOS>BOND
     1    1    2 1    
     2    1   67 1    
     3    1   68 1    
     4    1   69 1    
     5    2    3 2    
     6    2    4 am   BACKBONE|DICT|INTERRES
     7    4    5 1    
     8    4   70 1    
     9    5    6 1    
    10    5   65 1    
    11    5   71 1    
    12    6    7 1    
    13    6   72 1    
    14    6   73 1    
    15    7    8 1    
    16    8    9 1    
    17    8   74 1    
    18    8   75 1    
    19    9   10 ar   
    20    9   14 ar   
    21   10   11 ar   
    22   10   76 1    
    23   11   12 ar   
    24   11   48 1    
    25   12   13 ar   
    26   12   77 1    
    27   13   14 ar   
    28   13   15 1    
    29   14   78 1    
    30   15   16 1    
    31   15   79 1    
    32   15   80 1    
    33   16   17 1    
    34   17   18 1    
    35   17   81 1    
    36   17   82 1    
    37   18   19 1    
    38   18   22 1    
    39   18   83 1    
    40   19   20 am   BACKBONE|DICT|INTERRES
    41   19   21 2    
    42   20   84 1    
    43   20   85 1    
    44   22   23 am   BACKBONE|DICT|INTERRES
    45   22   86 1    
    46   23   24 2    
    47   23   25 1    
    48   25   26 1    
    49   25   27 1    
    50   25   87 1    
    51   26   88 1    
    52   26   89 1    
    53   26   90 1    
    54   27   28 am   BACKBONE|DICT|INTERRES
    55   27   91 1    
    56   28   29 2    
    57   28   30 1    
    58   30   31 1    
    59   30   32 1    
    60   30   92 1    
    61   31   93 1    
    62   31   94 1    
    63   31   95 1    
    64   32   33 am   BACKBONE|DICT|INTERRES
    65   32   96 1    
    66   33   34 2    
    67   33   35 1    
    68   35   36 1    
    69   35   37 1    
    70   35   97 1    
    71   36   98 1    
    72   36   99 1    
    73   36  100 1    
    74   37   38 am   BACKBONE|DICT|INTERRES
    75   37  101 1    
    76   38   39 2    
    77   38   40 1    
    78   40   41 1    
    79   40   42 1    
    80   40  102 1    
    81   41  103 1    
    82   41  104 1    
    83   41  105 1    
    84   42   43 am   BACKBONE|DICT|INTERRES
    85   42  106 1    
    86   43   44 2    
    87   43   45 1    
    88   45   46 1    
    89   45   49 1    
    90   45  107 1    
    91   46   47 1    
    92   46  108 1    
    93   46  109 1    
    94   47   48 1    
    95   48  110 1    
    96   48  111 1    
    97   49   50 am   BACKBONE|DICT|INTERRES
    98   49  112 1    
    99   50   51 2    
   100   50   52 1    
   101   52   53 1    
   102   52   54 1    
   103   52  113 1    
   104   53  114 1    
   105   53  115 1    
   106   53  116 1    
   107   54   55 am   BACKBONE|DICT|INTERRES
   108   54  117 1    
   109   55   56 2    
   110   55   57 1    
   111   57   58 1    
   112   57   59 1    
   113   57  118 1    
   114   58  119 1    
   115   58  120 1    
   116   58  121 1    
   117   59   60 am   BACKBONE|DICT|INTERRES
   118   59  122 1    
   119   60   61 2    
   120   60   62 1    
   121   62   63 1    
   122   62   64 1    
   123   62  123 1    
   124   63  124 1    
   125   63  125 1    
   126   63  126 1    
   127   64   65 am   BACKBONE|DICT|INTERRES
   128   64  127 1    
   129   65   66 2    
@<TRIPOS>SUBSTRUCTURE
     1 UNK         1 GROUP             0       ****    0 ROOT    
