@<TRIPOS>MOLECULE
3R135
127   129    1
SMALL
USER_CHARGES


@<TRIPOS>ATOM
      1 CA        -79.8376   31.5076  -76.7854 C.3       0 UNK        -0.1998 
      2 C         -79.8031   30.4007  -75.7425 C.2       0 UNK         0.4909 
      3 O         -78.7256   30.0553  -75.2599 O.2       0 UNK        -0.5240 
      4 N         -80.9724   29.8478  -75.4021 N.am      1 UNK        -0.4739 
      5 CA        -81.1439   28.7358  -74.4619 C.3       1 UNK         0.0864 
      6 C6        -82.1399   29.0776  -73.3260 C.3       11 UNK        -0.0881 
      7 S7        -81.6535   30.5621  -72.3826 S.3       11 UNK        -0.2682 
      8 C8        -80.9122   29.8415  -70.8838 C.3       11 UNK         0.0289 
      9 C9        -79.5497   29.2044  -71.1336 C.ar      11 UNK        -0.0687 
     10 C10       -79.3326   27.8594  -70.8110 C.ar      11 UNK        -0.0823 
     11 C11       -78.0601   27.2912  -70.9411 C.ar      11 UNK        -0.0830 
     12 C12       -77.0141   28.0741  -71.4334 C.ar      11 UNK        -0.1021 
     13 C13       -77.2144   29.4147  -71.7643 C.ar      11 UNK        -0.0753 
     14 C14       -78.4847   29.9774  -71.6122 C.ar      11 UNK        -0.0933 
     15 C15       -76.0310   30.2440  -72.2378 C.3       11 UNK         0.0166 
     16 S16       -74.8319   30.4461  -70.8819 S.3       11 UNK        -0.2615 
     17 C17       -73.3334   31.0226  -71.7518 C.3       11 UNK        -0.0865 
     18 CA        -72.4352   29.9138  -72.3869 C.3       10 UNK         0.0862 
     19 C         -72.1422   28.6865  -71.4798 C.2       10 UNK         0.5551 
     20 N         -71.5719   28.9090  -70.3033 N.am      10 UNK        -0.7319 
     21 O         -72.4108   27.5384  -71.8295 O.2       10 UNK        -0.5018 
     22 N         -72.9038   29.5116  -73.7174 N.am      10 UNK        -0.4509 
     23 C         -72.7517   30.2443  -74.8260 C.2       10 UNK         0.4899 
     24 O         -72.2200   31.3563  -74.8429 O.2       10 UNK        -0.4839 
     25 CA        -73.2876   29.6295  -76.1288 C.3       9 UNK         0.0222 
     26 CB        -72.9643   30.4704  -77.3819 C.3       9 UNK        -0.1966 
     27 N         -72.8625   28.2401  -76.3099 N.am      9 UNK        -0.4218 
     28 C         -71.6192   27.7546  -76.4400 C.2       9 UNK         0.5020 
     29 O         -70.5970   28.4410  -76.4111 O.2       9 UNK        -0.5274 
     30 CA        -71.4941   26.2315  -76.6430 C.3       8 UNK         0.0270 
     31 CB        -71.1653   25.5456  -75.3069 C.3       8 UNK        -0.1976 
     32 N         -72.7041   25.6254  -77.2093 N.am      8 UNK        -0.4313 
     33 C         -73.1488   25.8151  -78.4606 C.2       8 UNK         0.5041 
     34 O         -72.5146   26.4115  -79.3316 O.2       8 UNK        -0.5577 
     35 CA        -74.5669   25.3024  -78.7726 C.3       7 UNK         0.0284 
     36 CB        -74.5561   23.7996  -79.0938 C.3       7 UNK        -0.1958 
     37 N         -75.5041   25.5827  -77.6777 N.am      7 UNK        -0.4454 
     38 C         -75.8920   26.8168  -77.3205 C.2       7 UNK         0.5089 
     39 O         -75.5823   27.8338  -77.9388 O.2       7 UNK        -0.5125 
     40 CA        -76.7290   26.9555  -76.0419 C.3       6 UNK         0.0408 
     41 CB        -78.2202   26.8884  -76.3720 C.3       6 UNK        -0.1791 
     42 N         -76.3964   25.9345  -75.0472 N.am      6 UNK        -0.4762 
     43 C         -75.3436   26.0056  -74.2185 C.2       6 UNK         0.5007 
     44 O         -74.5936   26.9812  -74.1608 O.2       6 UNK        -0.5032 
     45 CA        -75.0267   24.7538  -73.3676 C.3       5 UNK         0.0783 
     46 C46       -75.5849   24.8233  -71.9259 C.3       11 UNK        -0.0857 
     47 S47       -77.4076   24.7188  -71.8247 S.3       11 UNK        -0.2512 
     48 C48       -77.7983   25.8659  -70.4671 C.3       11 UNK         0.0225 
     49 N         -75.4150   23.5081  -74.0355 N.am      5 UNK        -0.4615 
     50 C         -74.8094   23.0186  -75.1226 C.2       4 UNK         0.5053 
     51 O         -73.8482   23.5624  -75.6635 O.2       4 UNK        -0.5105 
     52 CA        -75.3813   21.7281  -75.7306 C.3       4 UNK         0.0263 
     53 CB        -74.6719   20.5011  -75.1370 C.3       4 UNK        -0.1981 
     54 N         -76.8317   21.5721  -75.5801 N.am      4 UNK        -0.4224 
     55 C         -77.7635   22.4056  -76.0654 C.2       3 UNK         0.4895 
     56 O         -77.4931   23.4592  -76.6478 O.2       3 UNK        -0.5091 
     57 CA        -79.2322   21.9501  -75.9140 C.3       3 UNK         0.0250 
     58 CB        -79.4889   21.1333  -74.6250 C.3       3 UNK        -0.1996 
     59 N         -80.2090   23.0419  -76.0316 N.am      3 UNK        -0.4254 
     60 C         -80.3440   24.0918  -75.2100 C.2       2 UNK         0.5004 
     61 O         -79.6231   24.3084  -74.2348 O.2       2 UNK        -0.5226 
     62 CA        -81.5044   25.0493  -75.5104 C.3       2 UNK         0.0269 
     63 CB        -82.8482   24.4594  -75.0447 C.3       2 UNK        -0.1926 
     64 N         -81.2584   26.3126  -74.8188 N.am      2 UNK        -0.4687 
     65 C         -81.6405   27.5151  -75.2581 C.2       1 UNK         0.5165 
     66 O         -82.3604   27.6802  -76.2475 O.2       1 UNK        -0.5079 
     67 H67       -79.4294   32.4276  -76.3678 H         1 UNK         0.0900 
     68 H68       -79.2344   31.2278  -77.6486 H         1 UNK         0.0900 
     69 H69       -80.8509   31.7122  -77.1307 H         1 UNK         0.0900 
     70 H70       -81.8173   30.1313  -75.8783 H         1 UNK         0.2959 
     71 H71       -80.1846   28.4785  -74.0062 H         1 UNK         0.1079 
     72 H72       -83.1368   29.2590  -73.7329 H         1 UNK         0.0837 
     73 H73       -82.2438   28.2343  -72.6405 H         1 UNK         0.0837 
     74 H74       -81.6098   29.1256  -70.4463 H         1 UNK         0.0685 
     75 H75       -80.7907   30.6346  -70.1448 H         1 UNK         0.0685 
     76 H76       -80.1453   27.2661  -70.4145 H         1 UNK         0.1434 
     77 H77       -76.0202   27.6661  -71.5272 H         1 UNK         0.1329 
     78 H78       -78.6439   31.0205  -71.8489 H         1 UNK         0.1335 
     79 H79       -75.5628   29.7365  -73.0818 H         1 UNK         0.0680 
     80 H80       -76.3512   31.2239  -72.5949 H         1 UNK         0.0680 
     81 H81       -72.7421   31.5743  -71.0197 H         1 UNK         0.1032 
     82 H82       -73.6183   31.7685  -72.4950 H         1 UNK         0.1032 
     83 H83       -71.4502   30.3578  -72.5467 H         1 UNK         0.0461 
     84 H84       -71.3466   29.8429  -69.9992 H         1 UNK         0.3453 
     85 H85       -71.3721   28.1250  -69.7025 H         1 UNK         0.3453 
     86 H86       -73.3274   28.5882  -73.7686 H         1 UNK         0.2984 
     87 H87       -74.3733   29.6017  -76.0247 H         1 UNK         0.0554 
     88 H88       -73.3804   31.4748  -77.2964 H         1 UNK         0.0847 
     89 H89       -73.3898   30.0193  -78.2786 H         1 UNK         0.0847 
     90 H90       -71.8899   30.5750  -77.5354 H         1 UNK         0.0847 
     91 H91       -73.6134   27.5647  -76.2987 H         1 UNK         0.3141 
     92 H92       -70.6692   26.0543  -77.3362 H         1 UNK         0.0743 
     93 H93       -70.2393   25.9380  -74.8843 H         1 UNK         0.0784 
     94 H94       -71.9524   25.7049  -74.5686 H         1 UNK         0.0784 
     95 H95       -71.0356   24.4705  -75.4325 H         1 UNK         0.0784 
     96 H96       -73.2423   25.0187  -76.5918 H         1 UNK         0.3213 
     97 H97       -74.9263   25.8325  -79.6575 H         1 UNK         0.0855 
     98 H98       -74.1004   23.2154  -78.2956 H         1 UNK         0.0814 
     99 H99       -73.9809   23.6053  -79.9999 H         1 UNK         0.0814 
    100 H100      -75.5637   23.4181  -79.2602 H         1 UNK         0.0814 
    101 H101      -75.8664   24.7935  -77.1548 H         1 UNK         0.3105 
    102 H102      -76.5299   27.9409  -75.6141 H         1 UNK         0.0547 
    103 H103      -78.5039   25.9334  -76.8139 H         1 UNK         0.0837 
    104 H104      -78.5042   27.6757  -77.0714 H         1 UNK         0.0837 
    105 H105      -78.7981   27.0348  -75.4644 H         1 UNK         0.0837 
    106 H106      -76.9616   25.0939  -75.0485 H         1 UNK         0.3020 
    107 H107      -73.9377   24.7365  -73.2759 H         1 UNK         0.1245 
    108 H108      -75.2111   25.7104  -71.4173 H         1 UNK         0.0781 
    109 H109      -75.1847   23.9874  -71.3502 H         1 UNK         0.0781 
    110 H110      -76.9906   25.8645  -69.7338 H         1 UNK         0.0836 
    111 H111      -78.6738   25.4787  -69.9438 H         1 UNK         0.0836 
    112 H112      -76.2182   23.0272  -73.6566 H         1 UNK         0.3022 
    113 H113      -75.1718   21.7526  -76.8010 H         1 UNK         0.0747 
    114 H114      -74.9842   19.5819  -75.6331 H         1 UNK         0.0793 
    115 H115      -73.5902   20.5794  -75.2581 H         1 UNK         0.0793 
    116 H116      -74.8732   20.3938  -74.0703 H         1 UNK         0.0793 
    117 H117      -77.1446   20.7312  -75.1171 H         1 UNK         0.3047 
    118 H118      -79.4246   21.2922  -76.7627 H         1 UNK         0.0822 
    119 H119      -80.5469   20.8942  -74.5156 H         1 UNK         0.0807 
    120 H120      -79.1806   21.6775  -73.7310 H         1 UNK         0.0807 
    121 H121      -78.9551   20.1826  -74.6352 H         1 UNK         0.0807 
    122 H122      -80.8325   22.9744  -76.8239 H         1 UNK         0.2946 
    123 H123      -81.5305   25.2212  -76.5893 H         1 UNK         0.1144 
    124 H124      -83.6755   25.1340  -75.2662 H         1 UNK         0.0793 
    125 H125      -82.8511   24.2677  -73.9709 H         1 UNK         0.0793 
    126 H126      -83.0600   23.5143  -75.5463 H         1 UNK         0.0793 
    127 H127      -80.6312   26.2262  -74.0271 H         1 UNK         0.2896 
@<TRIPOS>BOND
     1    1    2 1    
     2    1   67 1    
     3    1   68 1    
     4    1   69 1    
     5    2    3 2    
     6    2    4 am   BACKBONE|DICT|INTERRES
     7    4    5 1    
     8    4   70 1    
     9    5    6 1    
    10    5   65 1    
    11    5   71 1    
    12    6    7 1    
    13    6   72 1    
    14    6   73 1    
    15    7    8 1    
    16    8    9 1    
    17    8   74 1    
    18    8   75 1    
    19    9   10 ar   
    20    9   14 ar   
    21   10   11 ar   
    22   10   76 1    
    23   11   12 ar   
    24   11   48 1    
    25   12   13 ar   
    26   12   77 1    
    27   13   14 ar   
    28   13   15 1    
    29   14   78 1    
    30   15   16 1    
    31   15   79 1    
    32   15   80 1    
    33   16   17 1    
    34   17   18 1    
    35   17   81 1    
    36   17   82 1    
    37   18   19 1    
    38   18   22 1    
    39   18   83 1    
    40   19   20 am   BACKBONE|DICT|INTERRES
    41   19   21 2    
    42   20   84 1    
    43   20   85 1    
    44   22   23 am   BACKBONE|DICT|INTERRES
    45   22   86 1    
    46   23   24 2    
    47   23   25 1    
    48   25   26 1    
    49   25   27 1    
    50   25   87 1    
    51   26   88 1    
    52   26   89 1    
    53   26   90 1    
    54   27   28 am   BACKBONE|DICT|INTERRES
    55   27   91 1    
    56   28   29 2    
    57   28   30 1    
    58   30   31 1    
    59   30   32 1    
    60   30   92 1    
    61   31   93 1    
    62   31   94 1    
    63   31   95 1    
    64   32   33 am   BACKBONE|DICT|INTERRES
    65   32   96 1    
    66   33   34 2    
    67   33   35 1    
    68   35   36 1    
    69   35   37 1    
    70   35   97 1    
    71   36   98 1    
    72   36   99 1    
    73   36  100 1    
    74   37   38 am   BACKBONE|DICT|INTERRES
    75   37  101 1    
    76   38   39 2    
    77   38   40 1    
    78   40   41 1    
    79   40   42 1    
    80   40  102 1    
    81   41  103 1    
    82   41  104 1    
    83   41  105 1    
    84   42   43 am   BACKBONE|DICT|INTERRES
    85   42  106 1    
    86   43   44 2    
    87   43   45 1    
    88   45   46 1    
    89   45   49 1    
    90   45  107 1    
    91   46   47 1    
    92   46  108 1    
    93   46  109 1    
    94   47   48 1    
    95   48  110 1    
    96   48  111 1    
    97   49   50 am   BACKBONE|DICT|INTERRES
    98   49  112 1    
    99   50   51 2    
   100   50   52 1    
   101   52   53 1    
   102   52   54 1    
   103   52  113 1    
   104   53  114 1    
   105   53  115 1    
   106   53  116 1    
   107   54   55 am   BACKBONE|DICT|INTERRES
   108   54  117 1    
   109   55   56 2    
   110   55   57 1    
   111   57   58 1    
   112   57   59 1    
   113   57  118 1    
   114   58  119 1    
   115   58  120 1    
   116   58  121 1    
   117   59   60 am   BACKBONE|DICT|INTERRES
   118   59  122 1    
   119   60   61 2    
   120   60   62 1    
   121   62   63 1    
   122   62   64 1    
   123   62  123 1    
   124   63  124 1    
   125   63  125 1    
   126   63  126 1    
   127   64   65 am   BACKBONE|DICT|INTERRES
   128   64  127 1    
   129   65   66 2    
@<TRIPOS>SUBSTRUCTURE
     1 UNK         1 GROUP             0       ****    0 ROOT    
