@<TRIPOS>MOLECULE
3R135
127   129    1
SMALL
USER_CHARGES


@<TRIPOS>ATOM
      1 CA        -81.9985   22.8339  -70.8103 C.3       0 UNK        -0.1998 
      2 C         -82.3111   24.0411  -71.6812 C.2       0 UNK         0.4909 
      3 O         -83.3506   24.0695  -72.3421 O.2       0 UNK        -0.5240 
      4 N         -81.4158   25.0377  -71.6992 N.am      1 UNK        -0.4739 
      5 CA        -81.5171   26.2683  -72.4960 C.3       1 UNK         0.0864 
      6 C6        -80.7383   27.4240  -71.8090 C.3       11 UNK        -0.0881 
      7 S7        -81.5037   29.0569  -72.0698 S.3       11 UNK        -0.2682 
      8 C8        -80.4438   30.0999  -71.0113 C.3       11 UNK         0.0289 
      9 C9        -79.0238   30.1642  -71.5523 C.ar      11 UNK        -0.0687 
     10 C10       -78.7522   30.9307  -72.6884 C.ar      11 UNK        -0.0823 
     11 C11       -77.4842   30.9023  -73.2741 C.ar      11 UNK        -0.0830 
     12 C12       -76.4689   30.1505  -72.6775 C.ar      11 UNK        -0.1021 
     13 C13       -76.7197   29.4026  -71.5253 C.ar      11 UNK        -0.0753 
     14 C14       -77.9996   29.4145  -70.9622 C.ar      11 UNK        -0.0933 
     15 C15       -75.6138   28.5401  -70.9391 C.3       11 UNK         0.0166 
     16 S16       -74.2697   29.5548  -70.2554 S.3       11 UNK        -0.2615 
     17 C17       -72.8753   28.3779  -70.3196 C.3       11 UNK        -0.0865 
     18 CA        -71.8435   28.7475  -71.4216 C.3       10 UNK         0.0862 
     19 C         -70.5092   27.9580  -71.2487 C.2       10 UNK         0.5551 
     20 N         -69.9519   27.3290  -72.2766 N.am      10 UNK        -0.7319 
     21 O         -69.9555   27.9237  -70.1520 O.2       10 UNK        -0.5018 
     22 N         -72.4252   28.6671  -72.7750 N.am      10 UNK        -0.4509 
     23 C         -72.0291   29.4091  -73.8178 C.2       10 UNK         0.4899 
     24 O         -71.1975   30.3153  -73.7374 O.2       10 UNK        -0.4839 
     25 CA        -72.6528   29.0512  -75.1828 C.3       9 UNK         0.0222 
     26 CB        -71.9706   29.7663  -76.3671 C.3       9 UNK        -0.1966 
     27 N         -72.7087   27.6035  -75.4224 N.am      9 UNK        -0.4218 
     28 C         -71.6909   26.7305  -75.4090 C.2       9 UNK         0.5020 
     29 O         -70.5196   27.0381  -75.1864 O.2       9 UNK        -0.5274 
     30 CA        -72.0417   25.2553  -75.6620 C.3       8 UNK         0.0270 
     31 CB        -72.5343   24.5783  -74.3738 C.3       8 UNK        -0.1976 
     32 N         -73.0184   25.0701  -76.7421 N.am      8 UNK        -0.4313 
     33 C         -72.7103   25.2240  -78.0388 C.2       8 UNK         0.5041 
     34 O         -71.6057   25.5943  -78.4396 O.2       8 UNK        -0.5577 
     35 CA        -73.7926   24.8888  -79.0704 C.3       7 UNK         0.0284 
     36 CB        -74.0320   23.3700  -79.1480 C.3       7 UNK        -0.1958 
     37 N         -75.0518   25.5749  -78.7772 N.am      7 UNK        -0.4454 
     38 C         -75.6528   26.4305  -79.6131 C.2       7 UNK         0.5089 
     39 O         -75.1826   26.7773  -80.6974 O.2       7 UNK        -0.5125 
     40 CA        -77.0305   26.9771  -79.2035 C.3       6 UNK         0.0408 
     41 CB        -78.1475   26.0614  -79.7291 C.3       6 UNK        -0.1791 
     42 N         -77.2104   27.1913  -77.7657 N.am      6 UNK        -0.4762 
     43 C         -76.6126   28.1696  -77.0701 C.2       6 UNK         0.5007 
     44 O         -75.7051   28.8737  -77.5130 O.2       6 UNK        -0.5032 
     45 CA        -77.1416   28.4151  -75.6464 C.3       5 UNK         0.0783 
     46 C46       -78.4629   29.2239  -75.6584 C.3       11 UNK        -0.0857 
     47 S47       -78.2594   31.0163  -75.9722 S.3       11 UNK        -0.2512 
     48 C48       -77.2246   31.6264  -74.5878 C.3       11 UNK         0.0225 
     49 N         -77.2980   27.1586  -74.9114 N.am      5 UNK        -0.4615 
     50 C         -76.2906   26.5307  -74.2947 C.2       4 UNK         0.5053 
     51 O         -75.1525   26.9865  -74.2151 O.2       4 UNK        -0.5105 
     52 CA        -76.5774   25.1337  -73.7214 C.3       4 UNK         0.0263 
     53 CB        -77.3468   25.2181  -72.3950 C.3       4 UNK        -0.1981 
     54 N         -77.2997   24.2796  -74.6643 N.am      4 UNK        -0.4224 
     55 C         -76.8817   23.9449  -75.8919 C.2       3 UNK         0.4895 
     56 O         -75.7891   24.2806  -76.3520 O.2       3 UNK        -0.5091 
     57 CA        -77.8592   23.1564  -76.7855 C.3       3 UNK         0.0250 
     58 CB        -77.7813   21.6445  -76.5003 C.3       3 UNK        -0.1996 
     59 N         -79.2441   23.6627  -76.7456 N.am      3 UNK        -0.4254 
     60 C         -80.0997   23.6488  -75.7134 C.2       2 UNK         0.5004 
     61 O         -79.8744   23.0825  -74.6403 O.2       2 UNK        -0.5226 
     62 CA        -81.4023   24.4504  -75.8858 C.3       2 UNK         0.0269 
     63 CB        -82.5368   23.5387  -76.3768 C.3       2 UNK        -0.1926 
     64 N         -81.7995   25.0738  -74.6204 N.am      2 UNK        -0.4687 
     65 C         -81.0829   25.9928  -73.9572 C.2       1 UNK         0.5165 
     66 O         -80.0848   26.5371  -74.4371 O.2       1 UNK        -0.5079 
     67 H67       -81.0415   22.9381  -70.2959 H         1 UNK         0.0900 
     68 H68       -81.9577   21.9323  -71.4228 H         1 UNK         0.0900 
     69 H69       -82.7773   22.7023  -70.0577 H         1 UNK         0.0900 
     70 H70       -80.5680   24.9394  -71.1595 H         1 UNK         0.2959 
     71 H71       -82.5723   26.5504  -72.5320 H         1 UNK         0.1079 
     72 H72       -79.6935   27.4568  -72.1186 H         1 UNK         0.0837 
     73 H73       -80.7158   27.2690  -70.7290 H         1 UNK         0.0837 
     74 H74       -80.8636   31.1061  -70.9682 H         1 UNK         0.0685 
     75 H75       -80.4555   29.7172  -69.9896 H         1 UNK         0.0685 
     76 H76       -79.5476   31.4923  -73.1594 H         1 UNK         0.1434 
     77 H77       -75.4838   30.1175  -73.1227 H         1 UNK         0.1329 
     78 H78       -78.2084   28.8138  -70.0877 H         1 UNK         0.1335 
     79 H79       -75.9984   27.8810  -70.1589 H         1 UNK         0.0680 
     80 H80       -75.2211   27.8959  -71.7257 H         1 UNK         0.0680 
     81 H81       -73.2378   27.3571  -70.4540 H         1 UNK         0.1032 
     82 H82       -72.4070   28.3976  -69.3335 H         1 UNK         0.1032 
     83 H83       -71.5660   29.7891  -71.2464 H         1 UNK         0.0461 
     84 H84       -69.0867   26.8333  -72.1306 H         1 UNK         0.3453 
     85 H85       -70.3452   27.3797  -73.2095 H         1 UNK         0.3453 
     86 H86       -73.1085   27.9396  -72.9337 H         1 UNK         0.2984 
     87 H87       -73.6881   29.3929  -75.1440 H         1 UNK         0.0554 
     88 H88       -72.4603   29.5212  -77.3098 H         1 UNK         0.0847 
     89 H89       -70.9187   29.4921  -76.4534 H         1 UNK         0.0847 
     90 H90       -72.0176   30.8496  -76.2508 H         1 UNK         0.0847 
     91 H91       -73.6475   27.2202  -75.4707 H         1 UNK         0.3141 
     92 H92       -71.1198   24.7502  -75.9595 H         1 UNK         0.0743 
     93 H93       -73.4230   25.0614  -73.9756 H         1 UNK         0.0784 
     94 H94       -72.7675   23.5266  -74.5394 H         1 UNK         0.0784 
     95 H95       -71.7697   24.6231  -73.5971 H         1 UNK         0.0784 
     96 H96       -73.9513   24.7519  -76.4889 H         1 UNK         0.3213 
     97 H97       -73.4051   25.2035  -80.0419 H         1 UNK         0.0855 
     98 H98       -74.7473   23.1239  -79.9329 H         1 UNK         0.0814 
     99 H99       -74.4136   22.9635  -78.2114 H         1 UNK         0.0814 
    100 H100      -73.1056   22.8419  -79.3779 H         1 UNK         0.0814 
    101 H101      -75.4948   25.3460  -77.8925 H         1 UNK         0.3105 
    102 H102      -77.1468   27.9474  -79.6916 H         1 UNK         0.0547 
    103 H103      -78.0755   25.9460  -80.8116 H         1 UNK         0.0837 
    104 H104      -78.0925   25.0636  -79.2965 H         1 UNK         0.0837 
    105 H105      -79.1346   26.4720  -79.5165 H         1 UNK         0.0837 
    106 H106      -77.9329   26.6563  -77.3089 H         1 UNK         0.3020 
    107 H107      -76.3802   29.0060  -75.1383 H         1 UNK         0.1245 
    108 H108      -78.9790   29.1097  -74.7044 H         1 UNK         0.0781 
    109 H109      -79.1615   28.8221  -76.3949 H         1 UNK         0.0781 
    110 H110      -77.4084   32.6937  -74.4518 H         1 UNK         0.0836 
    111 H111      -76.1753   31.5349  -74.8759 H         1 UNK         0.0836 
    112 H112      -78.2359   26.7688  -74.8620 H         1 UNK         0.3022 
    113 H113      -75.6194   24.6535  -73.5201 H         1 UNK         0.0747 
    114 H114      -77.4343   24.2370  -71.9276 H         1 UNK         0.0793 
    115 H115      -76.8377   25.8707  -71.6850 H         1 UNK         0.0793 
    116 H116      -78.3525   25.6083  -72.5381 H         1 UNK         0.0793 
    117 H117      -78.2161   23.9398  -74.3825 H         1 UNK         0.3047 
    118 H118      -77.5195   23.3006  -77.8119 H         1 UNK         0.0822 
    119 H119      -78.4386   21.0821  -77.1633 H         1 UNK         0.0807 
    120 H120      -78.0543   21.4022  -75.4731 H         1 UNK         0.0807 
    121 H121      -76.7676   21.2739  -76.6584 H         1 UNK         0.0807 
    122 H122      -79.5433   24.1375  -77.5858 H         1 UNK         0.2946 
    123 H123      -81.2394   25.2457  -76.6164 H         1 UNK         0.1144 
    124 H124      -83.4594   24.0997  -76.5271 H         1 UNK         0.0793 
    125 H125      -82.7439   22.7368  -75.6669 H         1 UNK         0.0793 
    126 H126      -82.2820   23.0734  -77.3298 H         1 UNK         0.0793 
    127 H127      -82.5515   24.6251  -74.1074 H         1 UNK         0.2896 
@<TRIPOS>BOND
     1    1    2 1    
     2    1   67 1    
     3    1   68 1    
     4    1   69 1    
     5    2    3 2    
     6    2    4 am   BACKBONE|DICT|INTERRES
     7    4    5 1    
     8    4   70 1    
     9    5    6 1    
    10    5   65 1    
    11    5   71 1    
    12    6    7 1    
    13    6   72 1    
    14    6   73 1    
    15    7    8 1    
    16    8    9 1    
    17    8   74 1    
    18    8   75 1    
    19    9   10 ar   
    20    9   14 ar   
    21   10   11 ar   
    22   10   76 1    
    23   11   12 ar   
    24   11   48 1    
    25   12   13 ar   
    26   12   77 1    
    27   13   14 ar   
    28   13   15 1    
    29   14   78 1    
    30   15   16 1    
    31   15   79 1    
    32   15   80 1    
    33   16   17 1    
    34   17   18 1    
    35   17   81 1    
    36   17   82 1    
    37   18   19 1    
    38   18   22 1    
    39   18   83 1    
    40   19   20 am   BACKBONE|DICT|INTERRES
    41   19   21 2    
    42   20   84 1    
    43   20   85 1    
    44   22   23 am   BACKBONE|DICT|INTERRES
    45   22   86 1    
    46   23   24 2    
    47   23   25 1    
    48   25   26 1    
    49   25   27 1    
    50   25   87 1    
    51   26   88 1    
    52   26   89 1    
    53   26   90 1    
    54   27   28 am   BACKBONE|DICT|INTERRES
    55   27   91 1    
    56   28   29 2    
    57   28   30 1    
    58   30   31 1    
    59   30   32 1    
    60   30   92 1    
    61   31   93 1    
    62   31   94 1    
    63   31   95 1    
    64   32   33 am   BACKBONE|DICT|INTERRES
    65   32   96 1    
    66   33   34 2    
    67   33   35 1    
    68   35   36 1    
    69   35   37 1    
    70   35   97 1    
    71   36   98 1    
    72   36   99 1    
    73   36  100 1    
    74   37   38 am   BACKBONE|DICT|INTERRES
    75   37  101 1    
    76   38   39 2    
    77   38   40 1    
    78   40   41 1    
    79   40   42 1    
    80   40  102 1    
    81   41  103 1    
    82   41  104 1    
    83   41  105 1    
    84   42   43 am   BACKBONE|DICT|INTERRES
    85   42  106 1    
    86   43   44 2    
    87   43   45 1    
    88   45   46 1    
    89   45   49 1    
    90   45  107 1    
    91   46   47 1    
    92   46  108 1    
    93   46  109 1    
    94   47   48 1    
    95   48  110 1    
    96   48  111 1    
    97   49   50 am   BACKBONE|DICT|INTERRES
    98   49  112 1    
    99   50   51 2    
   100   50   52 1    
   101   52   53 1    
   102   52   54 1    
   103   52  113 1    
   104   53  114 1    
   105   53  115 1    
   106   53  116 1    
   107   54   55 am   BACKBONE|DICT|INTERRES
   108   54  117 1    
   109   55   56 2    
   110   55   57 1    
   111   57   58 1    
   112   57   59 1    
   113   57  118 1    
   114   58  119 1    
   115   58  120 1    
   116   58  121 1    
   117   59   60 am   BACKBONE|DICT|INTERRES
   118   59  122 1    
   119   60   61 2    
   120   60   62 1    
   121   62   63 1    
   122   62   64 1    
   123   62  123 1    
   124   63  124 1    
   125   63  125 1    
   126   63  126 1    
   127   64   65 am   BACKBONE|DICT|INTERRES
   128   64  127 1    
   129   65   66 2    
@<TRIPOS>SUBSTRUCTURE
     1 UNK         1 GROUP             0       ****    0 ROOT    
