@<TRIPOS>MOLECULE
3R135
127   129    1
SMALL
USER_CHARGES


@<TRIPOS>ATOM
      1 CA        -82.1523   25.1719  -70.6619 C.3       0 UNK        -0.1998 
      2 C         -82.9414   25.9151  -71.7283 C.2       0 UNK         0.4909 
      3 O         -84.0235   25.4699  -72.1113 O.2       0 UNK        -0.5240 
      4 N         -82.4121   27.0497  -72.2042 N.am      1 UNK        -0.4739 
      5 CA        -83.0188   27.8863  -73.2483 C.3       1 UNK         0.0864 
      6 C6        -82.4373   29.3246  -73.2466 C.3       11 UNK        -0.0881 
      7 S7        -80.6186   29.3796  -73.4171 S.3       11 UNK        -0.2682 
      8 C8        -80.0925   29.8039  -71.7263 C.3       11 UNK         0.0289 
      9 C9        -78.6966   29.2633  -71.4695 C.ar      11 UNK        -0.0687 
     10 C10       -78.5279   28.0396  -70.8164 C.ar      11 UNK        -0.0823 
     11 C11       -77.2533   27.4830  -70.6652 C.ar      11 UNK        -0.0830 
     12 C12       -76.1432   28.1891  -71.1405 C.ar      11 UNK        -0.1021 
     13 C13       -76.2922   29.4281  -71.7718 C.ar      11 UNK        -0.0753 
     14 C14       -77.5760   29.9637  -71.9234 C.ar      11 UNK        -0.0933 
     15 C15       -75.0574   30.1696  -72.2779 C.3       11 UNK         0.0166 
     16 S16       -75.2779   30.8672  -73.9476 S.3       11 UNK        -0.2615 
     17 C17       -73.5494   31.1296  -74.4668 C.3       11 UNK        -0.0865 
     18 CA        -73.0547   30.0261  -75.4500 C.3       10 UNK         0.0862 
     19 C         -73.4454   30.2852  -76.9411 C.2       10 UNK         0.5551 
     20 N         -72.6309   29.9014  -77.9187 N.am      10 UNK        -0.7319 
     21 O         -74.5073   30.8319  -77.2268 O.2       10 UNK        -0.5018 
     22 N         -71.6385   29.6860  -75.2491 N.am      10 UNK        -0.4509 
     23 C         -70.6026   30.5217  -75.4155 C.2       10 UNK         0.4899 
     24 O         -70.7209   31.7299  -75.6203 O.2       10 UNK        -0.4839 
     25 CA        -69.1873   29.9127  -75.3745 C.3       9 UNK         0.0222 
     26 CB        -68.5462   30.1415  -73.9961 C.3       9 UNK        -0.1966 
     27 N         -69.1393   28.4829  -75.6978 N.am      9 UNK        -0.4218 
     28 C         -69.5265   27.9287  -76.8559 C.2       9 UNK         0.5020 
     29 O         -69.9402   28.5735  -77.8212 O.2       9 UNK        -0.5274 
     30 CA        -69.5007   26.3911  -76.9433 C.3       8 UNK         0.0270 
     31 CB        -68.6574   25.7092  -75.8406 C.3       8 UNK        -0.1976 
     32 N         -70.8563   25.8259  -76.9689 N.am      8 UNK        -0.4313 
     33 C         -71.8323   26.0220  -76.0696 C.2       8 UNK         0.5041 
     34 O         -71.7261   26.7543  -75.0801 O.2       8 UNK        -0.5577 
     35 CA        -73.1265   25.2286  -76.3023 C.3       7 UNK         0.0284 
     36 CB        -72.9440   23.7633  -75.8718 C.3       7 UNK        -0.1958 
     37 N         -74.2194   25.7997  -75.5220 N.am      7 UNK        -0.4454 
     38 C         -75.1068   26.6955  -75.9597 C.2       7 UNK         0.5089 
     39 O         -75.1424   27.1146  -77.1176 O.2       7 UNK        -0.5125 
     40 CA        -76.1276   27.1941  -74.9181 C.3       6 UNK         0.0408 
     41 CB        -77.1342   28.2018  -75.5025 C.3       6 UNK        -0.1791 
     42 N         -76.8738   26.0974  -74.3000 N.am      6 UNK        -0.4762 
     43 C         -76.4302   25.2730  -73.3398 C.2       6 UNK         0.5007 
     44 O         -75.2867   25.3059  -72.8823 O.2       6 UNK        -0.5032 
     45 CA        -77.4281   24.2125  -72.8437 C.3       5 UNK         0.0783 
     46 C46       -78.6009   24.8533  -72.0542 C.3       11 UNK        -0.0857 
     47 S47       -78.3550   24.8888  -70.2457 S.3       11 UNK        -0.2512 
     48 C48       -77.0357   26.1306  -69.9866 C.3       11 UNK         0.0225 
     49 N         -77.9130   23.4605  -73.9995 N.am      5 UNK        -0.4615 
     50 C         -77.3702   22.3291  -74.4669 C.2       4 UNK         0.5053 
     51 O         -76.4605   21.7201  -73.9042 O.2       4 UNK        -0.5105 
     52 CA        -77.9330   21.7848  -75.7944 C.3       4 UNK         0.0263 
     53 CB        -79.0525   20.7661  -75.5265 C.3       4 UNK        -0.1981 
     54 N         -78.4427   22.8436  -76.6704 N.am      4 UNK        -0.4224 
     55 C         -77.6770   23.7720  -77.2619 C.2       3 UNK         0.4895 
     56 O         -76.4473   23.7418  -77.2537 O.2       3 UNK        -0.5091 
     57 CA        -78.3918   24.9436  -77.9633 C.3       3 UNK         0.0250 
     58 CB        -78.3427   24.7622  -79.4892 C.3       3 UNK        -0.1996 
     59 N         -79.7862   25.1661  -77.5521 N.am      3 UNK        -0.4254 
     60 C         -80.2030   25.4699  -76.3148 C.2       2 UNK         0.5004 
     61 O         -79.4578   25.5355  -75.3326 O.2       2 UNK        -0.5226 
     62 CA        -81.7106   25.6748  -76.1373 C.3       2 UNK         0.0269 
     63 CB        -82.4468   24.3232  -76.1028 C.3       2 UNK        -0.1926 
     64 N         -81.9498   26.3864  -74.8858 N.am      2 UNK        -0.4687 
     65 C         -82.9557   27.2378  -74.6502 C.2       1 UNK         0.5165 
     66 O         -83.8229   27.5122  -75.4818 O.2       1 UNK        -0.5079 
     67 H67       -81.7962   24.2191  -71.0522 H         1 UNK         0.0900 
     68 H68       -82.7854   24.9704  -69.7983 H         1 UNK         0.0900 
     69 H69       -81.2915   25.7449  -70.3196 H         1 UNK         0.0900 
     70 H70       -81.5148   27.3671  -71.8691 H         1 UNK         0.2959 
     71 H71       -84.0821   27.9733  -73.0125 H         1 UNK         0.1079 
     72 H72       -82.7300   29.8361  -72.3284 H         1 UNK         0.0837 
     73 H73       -82.8763   29.9151  -74.0533 H         1 UNK         0.0837 
     74 H74       -80.1112   30.8874  -71.5998 H         1 UNK         0.0685 
     75 H75       -80.7922   29.3934  -70.9967 H         1 UNK         0.0685 
     76 H76       -79.3937   27.5063  -70.4514 H         1 UNK         0.1434 
     77 H77       -75.1546   27.7653  -71.0253 H         1 UNK         0.1329 
     78 H78       -77.7090   30.9130  -72.4236 H         1 UNK         0.1335 
     79 H79       -74.8106   30.9726  -71.5824 H         1 UNK         0.0680 
     80 H80       -74.2006   29.4938  -72.2960 H         1 UNK         0.0680 
     81 H81       -72.9239   31.1572  -73.5733 H         1 UNK         0.1032 
     82 H82       -73.4556   32.1212  -74.9136 H         1 UNK         0.1032 
     83 H83       -73.5692   29.1013  -75.1904 H         1 UNK         0.0461 
     84 H84       -72.9034   30.0694  -78.8736 H         1 UNK         0.3453 
     85 H85       -71.7415   29.4558  -77.7220 H         1 UNK         0.3453 
     86 H86       -71.4544   28.6957  -75.1057 H         1 UNK         0.2984 
     87 H87       -68.5878   30.4363  -76.1218 H         1 UNK         0.0554 
     88 H88       -68.5391   31.2021  -73.7403 H         1 UNK         0.0847 
     89 H89       -69.0893   29.6205  -73.2065 H         1 UNK         0.0847 
     90 H90       -67.5112   29.7999  -73.9760 H         1 UNK         0.0847 
     91 H91       -68.8555   27.8607  -74.9548 H         1 UNK         0.3141 
     92 H92       -69.0421   26.1506  -77.9037 H         1 UNK         0.0743 
     93 H93       -67.6389   26.0998  -75.8222 H         1 UNK         0.0784 
     94 H94       -69.0859   25.8409  -74.8463 H         1 UNK         0.0784 
     95 H95       -68.5809   24.6367  -76.0201 H         1 UNK         0.0784 
     96 H96       -71.0574   25.2316  -77.7617 H         1 UNK         0.3213 
     97 H97       -73.3766   25.2581  -77.3652 H         1 UNK         0.0855 
     98 H98       -72.1621   23.2734  -76.4532 H         1 UNK         0.0814 
     99 H99       -73.8616   23.1927  -76.0201 H         1 UNK         0.0814 
    100 H100      -72.6682   23.6832  -74.8193 H         1 UNK         0.0814 
    101 H101      -74.2584   25.5498  -74.5385 H         1 UNK         0.3105 
    102 H102      -75.5608   27.7074  -74.1394 H         1 UNK         0.0547 
    103 H103      -76.6213   29.0411  -75.9739 H         1 UNK         0.0837 
    104 H104      -77.7759   27.7466  -76.2563 H         1 UNK         0.0837 
    105 H105      -77.7743   28.6139  -74.7220 H         1 UNK         0.0837 
    106 H106      -77.8210   25.9603  -74.6474 H         1 UNK         0.3020 
    107 H107      -76.8887   23.5314  -72.1810 H         1 UNK         0.1245 
    108 H108      -79.5037   24.2595  -72.2052 H         1 UNK         0.0781 
    109 H109      -78.8640   25.8457  -72.4234 H         1 UNK         0.0781 
    110 H110      -76.0913   25.6927  -70.3123 H         1 UNK         0.0836 
    111 H111      -76.9326   26.3001  -68.9142 H         1 UNK         0.0836 
    112 H112      -78.6196   23.9283  -74.5567 H         1 UNK         0.3022 
    113 H113      -77.1195   21.2744  -76.3146 H         1 UNK         0.0747 
    114 H114      -79.4138   20.3199  -76.4532 H         1 UNK         0.0793 
    115 H115      -78.6946   19.9517  -74.8948 H         1 UNK         0.0793 
    116 H116      -79.9029   21.2228  -75.0182 H         1 UNK         0.0793 
    117 H117      -79.4448   22.9267  -76.7542 H         1 UNK         0.3047 
    118 H118      -77.8298   25.8452  -77.7126 H         1 UNK         0.0822 
    119 H119      -78.7430   25.6342  -80.0068 H         1 UNK         0.0807 
    120 H120      -78.9104   23.8881  -79.8106 H         1 UNK         0.0807 
    121 H121      -77.3160   24.6290  -79.8338 H         1 UNK         0.0807 
    122 H122      -80.4754   25.1105  -78.2888 H         1 UNK         0.2946 
    123 H123      -82.0740   26.2747  -76.9751 H         1 UNK         0.1144 
    124 H124      -83.5210   24.4620  -75.9788 H         1 UNK         0.0793 
    125 H125      -82.0967   23.6953  -75.2821 H         1 UNK         0.0793 
    126 H126      -82.3004   23.7664  -77.0291 H         1 UNK         0.0793 
    127 H127      -81.2293   26.2676  -74.1856 H         1 UNK         0.2896 
@<TRIPOS>BOND
     1    1    2 1    
     2    1   67 1    
     3    1   68 1    
     4    1   69 1    
     5    2    3 2    
     6    2    4 am   BACKBONE|DICT|INTERRES
     7    4    5 1    
     8    4   70 1    
     9    5    6 1    
    10    5   65 1    
    11    5   71 1    
    12    6    7 1    
    13    6   72 1    
    14    6   73 1    
    15    7    8 1    
    16    8    9 1    
    17    8   74 1    
    18    8   75 1    
    19    9   10 ar   
    20    9   14 ar   
    21   10   11 ar   
    22   10   76 1    
    23   11   12 ar   
    24   11   48 1    
    25   12   13 ar   
    26   12   77 1    
    27   13   14 ar   
    28   13   15 1    
    29   14   78 1    
    30   15   16 1    
    31   15   79 1    
    32   15   80 1    
    33   16   17 1    
    34   17   18 1    
    35   17   81 1    
    36   17   82 1    
    37   18   19 1    
    38   18   22 1    
    39   18   83 1    
    40   19   20 am   BACKBONE|DICT|INTERRES
    41   19   21 2    
    42   20   84 1    
    43   20   85 1    
    44   22   23 am   BACKBONE|DICT|INTERRES
    45   22   86 1    
    46   23   24 2    
    47   23   25 1    
    48   25   26 1    
    49   25   27 1    
    50   25   87 1    
    51   26   88 1    
    52   26   89 1    
    53   26   90 1    
    54   27   28 am   BACKBONE|DICT|INTERRES
    55   27   91 1    
    56   28   29 2    
    57   28   30 1    
    58   30   31 1    
    59   30   32 1    
    60   30   92 1    
    61   31   93 1    
    62   31   94 1    
    63   31   95 1    
    64   32   33 am   BACKBONE|DICT|INTERRES
    65   32   96 1    
    66   33   34 2    
    67   33   35 1    
    68   35   36 1    
    69   35   37 1    
    70   35   97 1    
    71   36   98 1    
    72   36   99 1    
    73   36  100 1    
    74   37   38 am   BACKBONE|DICT|INTERRES
    75   37  101 1    
    76   38   39 2    
    77   38   40 1    
    78   40   41 1    
    79   40   42 1    
    80   40  102 1    
    81   41  103 1    
    82   41  104 1    
    83   41  105 1    
    84   42   43 am   BACKBONE|DICT|INTERRES
    85   42  106 1    
    86   43   44 2    
    87   43   45 1    
    88   45   46 1    
    89   45   49 1    
    90   45  107 1    
    91   46   47 1    
    92   46  108 1    
    93   46  109 1    
    94   47   48 1    
    95   48  110 1    
    96   48  111 1    
    97   49   50 am   BACKBONE|DICT|INTERRES
    98   49  112 1    
    99   50   51 2    
   100   50   52 1    
   101   52   53 1    
   102   52   54 1    
   103   52  113 1    
   104   53  114 1    
   105   53  115 1    
   106   53  116 1    
   107   54   55 am   BACKBONE|DICT|INTERRES
   108   54  117 1    
   109   55   56 2    
   110   55   57 1    
   111   57   58 1    
   112   57   59 1    
   113   57  118 1    
   114   58  119 1    
   115   58  120 1    
   116   58  121 1    
   117   59   60 am   BACKBONE|DICT|INTERRES
   118   59  122 1    
   119   60   61 2    
   120   60   62 1    
   121   62   63 1    
   122   62   64 1    
   123   62  123 1    
   124   63  124 1    
   125   63  125 1    
   126   63  126 1    
   127   64   65 am   BACKBONE|DICT|INTERRES
   128   64  127 1    
   129   65   66 2    
@<TRIPOS>SUBSTRUCTURE
     1 UNK         1 GROUP             0       ****    0 ROOT    
