@<TRIPOS>MOLECULE
3R135
127   129    1
SMALL
USER_CHARGES


@<TRIPOS>ATOM
      1 CA        -76.7348   27.4013  -71.0836 C.3       0 UNK        -0.1998 
      2 C         -77.9176   26.7111  -70.4267 C.2       0 UNK         0.4909 
      3 O         -77.7302   25.7528  -69.6764 O.2       0 UNK        -0.5240 
      4 N         -79.1378   27.1903  -70.7060 N.am      1 UNK        -0.4739 
      5 CA        -80.3922   26.6178  -70.1933 C.3       1 UNK         0.0864 
      6 C6        -81.6075   27.5623  -70.3817 C.3       11 UNK        -0.0881 
      7 S7        -81.3777   29.1974  -69.5974 S.3       11 UNK        -0.2682 
      8 C8        -81.4085   30.3300  -71.0265 C.3       11 UNK         0.0289 
      9 C9        -80.1610   30.1835  -71.8840 C.ar      11 UNK        -0.0687 
     10 C10       -80.1814   29.3713  -73.0215 C.ar      11 UNK        -0.0823 
     11 C11       -79.0200   29.1733  -73.7705 C.ar      11 UNK        -0.0830 
     12 C12       -77.8398   29.8143  -73.3843 C.ar      11 UNK        -0.1021 
     13 C13       -77.8147   30.6759  -72.2815 C.ar      11 UNK        -0.0753 
     14 C14       -78.9807   30.8448  -71.5282 C.ar      11 UNK        -0.0933 
     15 C15       -76.5278   31.3818  -71.8587 C.3       11 UNK         0.0166 
     16 S16       -75.4911   31.9000  -73.2703 S.3       11 UNK        -0.2615 
     17 C17       -73.8614   32.1584  -72.4838 C.3       11 UNK        -0.0865 
     18 CA        -72.9454   30.8985  -72.4359 C.3       10 UNK         0.0862 
     19 C         -73.2862   29.9322  -71.2718 C.2       10 UNK         0.5551 
     20 N         -73.0875   30.3601  -70.0327 N.am      10 UNK        -0.7319 
     21 O         -73.7412   28.8081  -71.4758 O.2       10 UNK        -0.5018 
     22 N         -72.8940   30.1696  -73.7065 N.am      10 UNK        -0.4509 
     23 C         -72.1022   30.4353  -74.7477 C.2       10 UNK         0.4899 
     24 O         -71.3599   31.4174  -74.8016 O.2       10 UNK        -0.4839 
     25 CA        -72.1469   29.4417  -75.9318 C.3       9 UNK         0.0222 
     26 CB        -70.7922   29.3373  -76.6628 C.3       9 UNK        -0.1966 
     27 N         -72.6477   28.0989  -75.5974 N.am      9 UNK        -0.4218 
     28 C         -72.1501   27.2405  -74.6910 C.2       9 UNK         0.5020 
     29 O         -71.1842   27.4789  -73.9647 O.2       9 UNK        -0.5274 
     30 CA        -72.8505   25.8752  -74.5847 C.3       8 UNK         0.0270 
     31 CB        -74.2545   26.0161  -73.9696 C.3       8 UNK        -0.1976 
     32 N         -72.9403   25.1915  -75.8762 N.am      8 UNK        -0.4313 
     33 C         -71.8902   24.7612  -76.5923 C.2       8 UNK         0.5041 
     34 O         -70.7197   24.8373  -76.2168 O.2       8 UNK        -0.5577 
     35 CA        -72.1951   24.1449  -77.9658 C.3       7 UNK         0.0284 
     36 CB        -72.5905   22.6661  -77.8262 C.3       7 UNK        -0.1958 
     37 N         -73.2524   24.8827  -78.6589 N.am      7 UNK        -0.4454 
     38 C         -73.0545   26.0314  -79.3218 C.2       7 UNK         0.5089 
     39 O         -71.9483   26.5452  -79.4893 O.2       7 UNK        -0.5125 
     40 CA        -74.2999   26.7330  -79.8941 C.3       6 UNK         0.0408 
     41 CB        -74.5367   26.3028  -81.3503 C.3       6 UNK        -0.1791 
     42 N         -75.5163   26.4926  -79.1125 N.am      6 UNK        -0.4762 
     43 C         -75.7254   26.9553  -77.8712 C.2       6 UNK         0.5007 
     44 O         -74.9122   27.6388  -77.2480 O.2       6 UNK        -0.5032 
     45 CA        -77.0356   26.5221  -77.1871 C.3       5 UNK         0.0783 
     46 C46       -78.2190   27.4676  -77.5146 C.3       11 UNK        -0.0857 
     47 S47       -78.2453   28.9361  -76.4419 S.3       11 UNK        -0.2512 
     48 C48       -79.0316   28.2233  -74.9592 C.3       11 UNK         0.0225 
     49 N         -77.3904   25.1274  -77.4529 N.am      5 UNK        -0.4615 
     50 C         -76.6747   24.0554  -77.0987 C.2       4 UNK         0.5053 
     51 O         -75.5415   24.1296  -76.6201 O.2       4 UNK        -0.5105 
     52 CA        -77.3543   22.6843  -77.2999 C.3       4 UNK         0.0263 
     53 CB        -76.5297   21.5255  -76.7104 C.3       4 UNK        -0.1981 
     54 N         -78.7033   22.6457  -76.7209 N.am      4 UNK        -0.4224 
     55 C         -79.8048   23.1884  -77.2607 C.2       3 UNK         0.4895 
     56 O         -79.8075   23.7820  -78.3401 O.2       3 UNK        -0.5091 
     57 CA        -81.1142   23.0873  -76.4580 C.3       3 UNK         0.0250 
     58 CB        -81.9381   21.8781  -76.9295 C.3       3 UNK        -0.1996 
     59 N         -80.9218   23.0072  -75.0054 N.am      3 UNK        -0.4254 
     60 C         -80.4467   24.0011  -74.2421 C.2       2 UNK         0.5004 
     61 O         -80.0846   25.0960  -74.6804 O.2       2 UNK        -0.5226 
     62 CA        -80.3385   23.7082  -72.7411 C.3       2 UNK         0.0269 
     63 CB        -79.1209   22.8142  -72.4424 C.3       2 UNK        -0.1926 
     64 N         -80.1995   24.9662  -72.0123 N.am      2 UNK        -0.4687 
     65 C         -80.6930   25.2259  -70.7946 C.2       1 UNK         0.5165 
     66 O         -81.3547   24.4165  -70.1425 O.2       1 UNK        -0.5079 
     67 H67       -76.8458   27.4138  -72.1672 H         1 UNK         0.0900 
     68 H68       -75.8044   26.8844  -70.8490 H         1 UNK         0.0900 
     69 H69       -76.6466   28.4264  -70.7276 H         1 UNK         0.0900 
     70 H70       -79.2335   28.0105  -71.2910 H         1 UNK         0.2959 
     71 H71       -80.2597   26.4649  -69.1196 H         1 UNK         0.1079 
     72 H72       -81.8454   27.6831  -71.4387 H         1 UNK         0.0837 
     73 H73       -82.4971   27.1164  -69.9322 H         1 UNK         0.0837 
     74 H74       -82.3093   30.1531  -71.6165 H         1 UNK         0.0685 
     75 H75       -81.4817   31.3554  -70.6611 H         1 UNK         0.0685 
     76 H76       -81.0958   28.8702  -73.3084 H         1 UNK         0.1434 
     77 H77       -76.9362   29.6395  -73.9516 H         1 UNK         0.1329 
     78 H78       -78.9679   31.4775  -70.6510 H         1 UNK         0.1335 
     79 H79       -75.9702   30.7049  -71.2142 H         1 UNK         0.0680 
     80 H80       -76.7563   32.2644  -71.2593 H         1 UNK         0.0680 
     81 H81       -73.9978   32.5929  -71.4920 H         1 UNK         0.1032 
     82 H82       -73.3531   32.9305  -73.0630 H         1 UNK         0.1032 
     83 H83       -71.9294   31.2387  -72.2250 H         1 UNK         0.0461 
     84 H84       -72.7046   31.2738  -69.8467 H         1 UNK         0.3453 
     85 H85       -73.3061   29.7447  -69.2652 H         1 UNK         0.3453 
     86 H86       -73.4431   29.3211  -73.7140 H         1 UNK         0.2984 
     87 H87       -72.8685   29.8555  -76.6375 H         1 UNK         0.0554 
     88 H88       -70.8534   28.6579  -77.5136 H         1 UNK         0.0847 
     89 H89       -70.0047   28.9752  -76.0012 H         1 UNK         0.0847 
     90 H90       -70.4749   30.3072  -77.0475 H         1 UNK         0.0847 
     91 H91       -73.4604   27.8059  -76.1393 H         1 UNK         0.3141 
     92 H92       -72.2542   25.2461  -73.9204 H         1 UNK         0.0743 
     93 H93       -74.9114   26.6306  -74.5851 H         1 UNK         0.0784 
     94 H94       -74.7310   25.0438  -73.8422 H         1 UNK         0.0784 
     95 H95       -74.2012   26.4823  -72.9849 H         1 UNK         0.0784 
     96 H96       -73.8742   25.0043  -76.2319 H         1 UNK         0.3213 
     97 H97       -71.2833   24.1922  -78.5658 H         1 UNK         0.0855 
     98 H98       -73.4587   22.5372  -77.1809 H         1 UNK         0.0814 
     99 H99       -71.7754   22.0889  -77.3877 H         1 UNK         0.0814 
    100 H100      -72.8189   22.2204  -78.7944 H         1 UNK         0.0814 
    101 H101      -74.1993   24.5538  -78.5333 H         1 UNK         0.3105 
    102 H102      -74.1034   27.8074  -79.8853 H         1 UNK         0.0547 
    103 H103      -73.6541   26.4960  -81.9618 H         1 UNK         0.0837 
    104 H104      -74.7587   25.2377  -81.4277 H         1 UNK         0.0837 
    105 H105      -75.3642   26.8531  -81.7982 H         1 UNK         0.0837 
    106 H106      -76.2340   25.9249  -79.5405 H         1 UNK         0.3020 
    107 H107      -76.8409   26.5657  -76.1141 H         1 UNK         0.1245 
    108 H108      -79.1723   26.9520  -77.3814 H         1 UNK         0.0781 
    109 H109      -78.2040   27.7853  -78.5591 H         1 UNK         0.0781 
    110 H110      -78.5105   27.3115  -74.6671 H         1 UNK         0.0836 
    111 H111      -80.0517   27.9284  -75.2113 H         1 UNK         0.0836 
    112 H112      -78.3080   24.9554  -77.8524 H         1 UNK         0.3022 
    113 H113      -77.4337   22.5215  -78.3768 H         1 UNK         0.0747 
    114 H114      -77.0272   20.5670  -76.8595 H         1 UNK         0.0793 
    115 H115      -75.5545   21.4556  -77.1920 H         1 UNK         0.0793 
    116 H116      -76.3591   21.6534  -75.6405 H         1 UNK         0.0793 
    117 H117      -78.7897   22.2092  -75.8151 H         1 UNK         0.3047 
    118 H118      -81.6889   23.9925  -76.6666 H         1 UNK         0.0822 
    119 H119      -82.9117   21.8451  -76.4399 H         1 UNK         0.0807 
    120 H120      -82.1207   21.9253  -78.0042 H         1 UNK         0.0807 
    121 H121      -81.4271   20.9358  -76.7274 H         1 UNK         0.0807 
    122 H122      -81.1916   22.1396  -74.5636 H         1 UNK         0.2946 
    123 H123      -81.2543   23.2008  -72.4282 H         1 UNK         0.1144 
    124 H124      -79.1991   21.8524  -72.9504 H         1 UNK         0.0793 
    125 H125      -79.0353   22.6075  -71.3753 H         1 UNK         0.0793 
    126 H126      -78.1898   23.2822  -72.7655 H         1 UNK         0.0793 
    127 H127      -79.7223   25.6997  -72.5197 H         1 UNK         0.2896 
@<TRIPOS>BOND
     1    1    2 1    
     2    1   67 1    
     3    1   68 1    
     4    1   69 1    
     5    2    3 2    
     6    2    4 am   BACKBONE|DICT|INTERRES
     7    4    5 1    
     8    4   70 1    
     9    5    6 1    
    10    5   65 1    
    11    5   71 1    
    12    6    7 1    
    13    6   72 1    
    14    6   73 1    
    15    7    8 1    
    16    8    9 1    
    17    8   74 1    
    18    8   75 1    
    19    9   10 ar   
    20    9   14 ar   
    21   10   11 ar   
    22   10   76 1    
    23   11   12 ar   
    24   11   48 1    
    25   12   13 ar   
    26   12   77 1    
    27   13   14 ar   
    28   13   15 1    
    29   14   78 1    
    30   15   16 1    
    31   15   79 1    
    32   15   80 1    
    33   16   17 1    
    34   17   18 1    
    35   17   81 1    
    36   17   82 1    
    37   18   19 1    
    38   18   22 1    
    39   18   83 1    
    40   19   20 am   BACKBONE|DICT|INTERRES
    41   19   21 2    
    42   20   84 1    
    43   20   85 1    
    44   22   23 am   BACKBONE|DICT|INTERRES
    45   22   86 1    
    46   23   24 2    
    47   23   25 1    
    48   25   26 1    
    49   25   27 1    
    50   25   87 1    
    51   26   88 1    
    52   26   89 1    
    53   26   90 1    
    54   27   28 am   BACKBONE|DICT|INTERRES
    55   27   91 1    
    56   28   29 2    
    57   28   30 1    
    58   30   31 1    
    59   30   32 1    
    60   30   92 1    
    61   31   93 1    
    62   31   94 1    
    63   31   95 1    
    64   32   33 am   BACKBONE|DICT|INTERRES
    65   32   96 1    
    66   33   34 2    
    67   33   35 1    
    68   35   36 1    
    69   35   37 1    
    70   35   97 1    
    71   36   98 1    
    72   36   99 1    
    73   36  100 1    
    74   37   38 am   BACKBONE|DICT|INTERRES
    75   37  101 1    
    76   38   39 2    
    77   38   40 1    
    78   40   41 1    
    79   40   42 1    
    80   40  102 1    
    81   41  103 1    
    82   41  104 1    
    83   41  105 1    
    84   42   43 am   BACKBONE|DICT|INTERRES
    85   42  106 1    
    86   43   44 2    
    87   43   45 1    
    88   45   46 1    
    89   45   49 1    
    90   45  107 1    
    91   46   47 1    
    92   46  108 1    
    93   46  109 1    
    94   47   48 1    
    95   48  110 1    
    96   48  111 1    
    97   49   50 am   BACKBONE|DICT|INTERRES
    98   49  112 1    
    99   50   51 2    
   100   50   52 1    
   101   52   53 1    
   102   52   54 1    
   103   52  113 1    
   104   53  114 1    
   105   53  115 1    
   106   53  116 1    
   107   54   55 am   BACKBONE|DICT|INTERRES
   108   54  117 1    
   109   55   56 2    
   110   55   57 1    
   111   57   58 1    
   112   57   59 1    
   113   57  118 1    
   114   58  119 1    
   115   58  120 1    
   116   58  121 1    
   117   59   60 am   BACKBONE|DICT|INTERRES
   118   59  122 1    
   119   60   61 2    
   120   60   62 1    
   121   62   63 1    
   122   62   64 1    
   123   62  123 1    
   124   63  124 1    
   125   63  125 1    
   126   63  126 1    
   127   64   65 am   BACKBONE|DICT|INTERRES
   128   64  127 1    
   129   65   66 2    
@<TRIPOS>SUBSTRUCTURE
     1 UNK         1 GROUP             0       ****    0 ROOT    
