@<TRIPOS>MOLECULE
3R135
127   129    1
SMALL
USER_CHARGES


@<TRIPOS>ATOM
      1 CA        -84.3839   27.6060  -72.3713 C.3       0 UNK        -0.1998 
      2 C         -83.8842   28.0979  -73.7213 C.2       0 UNK         0.4909 
      3 O         -84.6647   28.1821  -74.6699 O.2       0 UNK        -0.5240 
      4 N         -82.5890   28.4264  -73.8118 N.am      1 UNK        -0.4739 
      5 CA        -81.9262   28.8916  -75.0376 C.3       1 UNK         0.0864 
      6 C6        -80.5544   29.5415  -74.7385 C.3       11 UNK        -0.0881 
      7 S7        -80.6817   31.0671  -73.7460 S.3       11 UNK        -0.2682 
      8 C8        -80.3799   30.4770  -72.0446 C.3       11 UNK         0.0289 
      9 C9        -79.0560   29.7382  -71.8814 C.ar      11 UNK        -0.0687 
     10 C10       -79.0387   28.4260  -71.3924 C.ar      11 UNK        -0.0823 
     11 C11       -77.8279   27.7516  -71.2011 C.ar      11 UNK        -0.0830 
     12 C12       -76.6336   28.3967  -71.5284 C.ar      11 UNK        -0.1021 
     13 C13       -76.6334   29.7049  -72.0187 C.ar      11 UNK        -0.0753 
     14 C14       -77.8482   30.3738  -72.1890 C.ar      11 UNK        -0.0933 
     15 C15       -75.3145   30.3803  -72.3632 C.3       11 UNK         0.0166 
     16 S16       -74.1901   30.3980  -70.9296 S.3       11 UNK        -0.2615 
     17 C17       -72.5883   30.8378  -71.6893 C.3       11 UNK        -0.0865 
     18 CA        -71.8373   29.6745  -72.4051 C.3       10 UNK         0.0862 
     19 C         -71.6697   28.3930  -71.5408 C.2       10 UNK         0.5551 
     20 N         -72.1981   27.2397  -71.9355 N.am      10 UNK        -0.7319 
     21 O         -71.0161   28.4409  -70.5016 O.2       10 UNK        -0.5018 
     22 N         -72.3392   29.4280  -73.7646 N.am      10 UNK        -0.4509 
     23 C         -72.0590   30.2020  -74.8198 C.2       10 UNK         0.4899 
     24 O         -71.3816   31.2299  -74.7553 O.2       10 UNK        -0.4839 
     25 CA        -72.6320   29.7425  -76.1717 C.3       9 UNK         0.0222 
     26 CB        -72.1157   30.5720  -77.3663 C.3       9 UNK        -0.1966 
     27 N         -72.4322   28.3100  -76.4104 N.am      9 UNK        -0.4218 
     28 C         -71.2728   27.6351  -76.4686 C.2       9 UNK         0.5020 
     29 O         -70.1641   28.1563  -76.3402 O.2       9 UNK        -0.5274 
     30 CA        -71.3513   26.1121  -76.6941 C.3       8 UNK         0.0270 
     31 CB        -70.9911   25.3675  -75.3973 C.3       8 UNK        -0.1976 
     32 N         -72.6640   25.6527  -77.1574 N.am      8 UNK        -0.4313 
     33 C         -73.1677   25.8637  -78.3817 C.2       8 UNK         0.5041 
     34 O         -72.5350   26.3793  -79.3038 O.2       8 UNK        -0.5577 
     35 CA        -74.6444   25.4845  -78.5953 C.3       7 UNK         0.0284 
     36 CB        -74.7810   23.9932  -78.9368 C.3       7 UNK        -0.1958 
     37 N         -75.4877   25.8135  -77.4393 N.am      7 UNK        -0.4454 
     38 C         -75.7034   27.0589  -76.9870 C.2       7 UNK         0.5089 
     39 O         -75.2477   28.0686  -77.5203 O.2       7 UNK        -0.5125 
     40 CA        -76.5259   27.2064  -75.7009 C.3       6 UNK         0.0408 
     41 CB        -78.0261   27.1682  -76.0169 C.3       6 UNK        -0.1791 
     42 N         -76.2057   26.1565  -74.7392 N.am      6 UNK        -0.4762 
     43 C         -75.1055   26.1215  -73.9744 C.2       6 UNK         0.5007 
     44 O         -74.2358   26.9990  -73.9669 O.2       6 UNK        -0.5032 
     45 CA        -74.9235   24.8561  -73.1074 C.3       5 UNK         0.0783 
     46 C46       -75.6021   24.9689  -71.7197 C.3       11 UNK        -0.0857 
     47 S47       -77.4322   25.0388  -71.7743 S.3       11 UNK        -0.2512 
     48 C48       -77.8086   26.3600  -70.5770 C.3       11 UNK         0.0225 
     49 N         -75.3316   23.6337  -73.8058 N.am      5 UNK        -0.4615 
     50 C         -74.7297   23.1459  -74.8966 C.2       4 UNK         0.5053 
     51 O         -73.7617   23.6780  -75.4365 O.2       4 UNK        -0.5105 
     52 CA        -75.3169   21.8645  -75.5077 C.3       4 UNK         0.0263 
     53 CB        -74.6813   20.6258  -74.8572 C.3       4 UNK        -0.1981 
     54 N         -76.7774   21.7606  -75.4301 N.am      4 UNK        -0.4224 
     55 C         -77.6567   22.6421  -75.9280 C.2       3 UNK         0.4895 
     56 O         -77.3323   23.7154  -76.4445 O.2       3 UNK        -0.5091 
     57 CA        -79.1345   22.2067  -75.8822 C.3       3 UNK         0.0250 
     58 CB        -79.5469   21.6133  -74.5144 C.3       3 UNK        -0.1996 
     59 N         -80.0599   23.2622  -76.3151 N.am      3 UNK        -0.4254 
     60 C         -80.4023   24.3754  -75.6521 C.2       2 UNK         0.5004 
     61 O         -80.0067   24.6671  -74.5204 O.2       2 UNK        -0.5226 
     62 CA        -81.3732   25.3152  -76.3825 C.3       2 UNK         0.0269 
     63 CB        -82.7442   24.6509  -76.6153 C.3       2 UNK        -0.1926 
     64 N         -81.5601   26.5261  -75.5888 N.am      2 UNK        -0.4687 
     65 C         -81.7637   27.7571  -76.0716 C.2       1 UNK         0.5165 
     66 O         -81.8277   28.0170  -77.2740 O.2       1 UNK        -0.5079 
     67 H67       -85.1817   28.2534  -72.0083 H         1 UNK         0.0900 
     68 H68       -84.7806   26.5954  -72.4642 H         1 UNK         0.0900 
     69 H69       -83.5921   27.5920  -71.6225 H         1 UNK         0.0900 
     70 H70       -81.9983   28.3440  -72.9986 H         1 UNK         0.2959 
     71 H71       -82.5666   29.6471  -75.4991 H         1 UNK         0.1079 
     72 H72       -79.8917   28.8324  -74.2438 H         1 UNK         0.0837 
     73 H73       -80.0547   29.8161  -75.6698 H         1 UNK         0.0837 
     74 H74       -81.2171   29.8522  -71.7323 H         1 UNK         0.0685 
     75 H75       -80.3824   31.3381  -71.3750 H         1 UNK         0.0685 
     76 H76       -79.9674   27.9362  -71.1338 H         1 UNK         0.1434 
     77 H77       -75.6878   27.8991  -71.3808 H         1 UNK         0.1329 
     78 H78       -77.8587   31.3886  -72.5628 H         1 UNK         0.1335 
     79 H79       -74.8661   29.8314  -73.1897 H         1 UNK         0.0680 
     80 H80       -75.4705   31.4029  -72.7099 H         1 UNK         0.0680 
     81 H81       -71.9550   31.2227  -70.8882 H         1 UNK         0.1032 
     82 H82       -72.7327   31.6822  -72.3646 H         1 UNK         0.1032 
     83 H83       -70.8074   30.0146  -72.5342 H         1 UNK         0.0461 
     84 H84       -72.0468   26.4272  -71.3604 H         1 UNK         0.3453 
     85 H85       -72.7994   27.1797  -72.7475 H         1 UNK         0.3453 
     86 H86       -72.9097   28.6006  -73.8947 H         1 UNK         0.2984 
     87 H87       -73.7104   29.8937  -76.1087 H         1 UNK         0.0554 
     88 H88       -72.3636   31.6272  -77.2461 H         1 UNK         0.0847 
     89 H89       -72.5657   30.2388  -78.3016 H         1 UNK         0.0847 
     90 H90       -71.0325   30.5021  -77.4711 H         1 UNK         0.0847 
     91 H91       -73.2845   27.7839  -76.5541 H         1 UNK         0.3141 
     92 H92       -70.6116   25.8556  -77.4552 H         1 UNK         0.0743 
     93 H93       -70.0045   25.6608  -75.0361 H         1 UNK         0.0784 
     94 H94       -71.7061   25.5781  -74.6010 H         1 UNK         0.0784 
     95 H95       -70.9712   24.2885  -75.5519 H         1 UNK         0.0784 
     96 H96       -73.2195   25.1234  -76.4873 H         1 UNK         0.3213 
     97 H97       -75.0159   26.0625  -79.4442 H         1 UNK         0.0855 
     98 H98       -74.3502   23.3621  -78.1608 H         1 UNK         0.0814 
     99 H99       -74.2607   23.7607  -79.8668 H         1 UNK         0.0814 
    100 H100      -75.8246   23.7054  -79.0666 H         1 UNK         0.0814 
    101 H101      -75.9541   25.0426  -76.9686 H         1 UNK         0.3105 
    102 H102      -76.2947   28.1721  -75.2455 H         1 UNK         0.0547 
    103 H103      -78.2939   26.2880  -76.6018 H         1 UNK         0.0837 
    104 H104      -78.3266   28.0447  -76.5917 H         1 UNK         0.0837 
    105 H105      -78.6179   27.1484  -75.1030 H         1 UNK         0.0837 
    106 H106      -76.8463   25.3746  -74.6922 H         1 UNK         0.3020 
    107 H107      -73.8488   24.7668  -72.9322 H         1 UNK         0.1245 
    108 H108      -75.1980   25.8175  -71.1699 H         1 UNK         0.0781 
    109 H109      -75.3319   24.0987  -71.1194 H         1 UNK         0.0781 
    110 H110      -77.0926   26.3327  -69.7543 H         1 UNK         0.0836 
    111 H111      -78.7788   26.1406  -70.1289 H         1 UNK         0.0836 
    112 H112      -76.1390   23.1535  -73.4358 H         1 UNK         0.3022 
    113 H113      -75.0533   21.8578  -76.5660 H         1 UNK         0.0747 
    114 H114      -74.9963   19.7086  -75.3552 H         1 UNK         0.0793 
    115 H115      -73.5927   20.6671  -74.9203 H         1 UNK         0.0793 
    116 H116      -74.9433   20.5432  -73.8015 H         1 UNK         0.0793 
    117 H117      -77.1393   20.9076  -75.0289 H         1 UNK         0.3047 
    118 H118      -79.2349   21.4142  -76.6255 H         1 UNK         0.0822 
    119 H119      -80.6181   21.4144  -74.4765 H         1 UNK         0.0807 
    120 H120      -79.3046   22.2840  -73.6889 H         1 UNK         0.0807 
    121 H121      -79.0447   20.6654  -74.3203 H         1 UNK         0.0807 
    122 H122      -80.4248   23.1438  -77.2499 H         1 UNK         0.2946 
    123 H123      -80.9216   25.5736  -77.3434 H         1 UNK         0.1144 
    124 H124      -83.4327   25.3311  -77.1173 H         1 UNK         0.0793 
    125 H125      -83.2056   24.3451  -75.6755 H         1 UNK         0.0793 
    126 H126      -82.6585   23.7632  -77.2427 H         1 UNK         0.0793 
    127 H127      -81.4422   26.3958  -74.5923 H         1 UNK         0.2896 
@<TRIPOS>BOND
     1    1    2 1    
     2    1   67 1    
     3    1   68 1    
     4    1   69 1    
     5    2    3 2    
     6    2    4 am   BACKBONE|DICT|INTERRES
     7    4    5 1    
     8    4   70 1    
     9    5    6 1    
    10    5   65 1    
    11    5   71 1    
    12    6    7 1    
    13    6   72 1    
    14    6   73 1    
    15    7    8 1    
    16    8    9 1    
    17    8   74 1    
    18    8   75 1    
    19    9   10 ar   
    20    9   14 ar   
    21   10   11 ar   
    22   10   76 1    
    23   11   12 ar   
    24   11   48 1    
    25   12   13 ar   
    26   12   77 1    
    27   13   14 ar   
    28   13   15 1    
    29   14   78 1    
    30   15   16 1    
    31   15   79 1    
    32   15   80 1    
    33   16   17 1    
    34   17   18 1    
    35   17   81 1    
    36   17   82 1    
    37   18   19 1    
    38   18   22 1    
    39   18   83 1    
    40   19   20 am   BACKBONE|DICT|INTERRES
    41   19   21 2    
    42   20   84 1    
    43   20   85 1    
    44   22   23 am   BACKBONE|DICT|INTERRES
    45   22   86 1    
    46   23   24 2    
    47   23   25 1    
    48   25   26 1    
    49   25   27 1    
    50   25   87 1    
    51   26   88 1    
    52   26   89 1    
    53   26   90 1    
    54   27   28 am   BACKBONE|DICT|INTERRES
    55   27   91 1    
    56   28   29 2    
    57   28   30 1    
    58   30   31 1    
    59   30   32 1    
    60   30   92 1    
    61   31   93 1    
    62   31   94 1    
    63   31   95 1    
    64   32   33 am   BACKBONE|DICT|INTERRES
    65   32   96 1    
    66   33   34 2    
    67   33   35 1    
    68   35   36 1    
    69   35   37 1    
    70   35   97 1    
    71   36   98 1    
    72   36   99 1    
    73   36  100 1    
    74   37   38 am   BACKBONE|DICT|INTERRES
    75   37  101 1    
    76   38   39 2    
    77   38   40 1    
    78   40   41 1    
    79   40   42 1    
    80   40  102 1    
    81   41  103 1    
    82   41  104 1    
    83   41  105 1    
    84   42   43 am   BACKBONE|DICT|INTERRES
    85   42  106 1    
    86   43   44 2    
    87   43   45 1    
    88   45   46 1    
    89   45   49 1    
    90   45  107 1    
    91   46   47 1    
    92   46  108 1    
    93   46  109 1    
    94   47   48 1    
    95   48  110 1    
    96   48  111 1    
    97   49   50 am   BACKBONE|DICT|INTERRES
    98   49  112 1    
    99   50   51 2    
   100   50   52 1    
   101   52   53 1    
   102   52   54 1    
   103   52  113 1    
   104   53  114 1    
   105   53  115 1    
   106   53  116 1    
   107   54   55 am   BACKBONE|DICT|INTERRES
   108   54  117 1    
   109   55   56 2    
   110   55   57 1    
   111   57   58 1    
   112   57   59 1    
   113   57  118 1    
   114   58  119 1    
   115   58  120 1    
   116   58  121 1    
   117   59   60 am   BACKBONE|DICT|INTERRES
   118   59  122 1    
   119   60   61 2    
   120   60   62 1    
   121   62   63 1    
   122   62   64 1    
   123   62  123 1    
   124   63  124 1    
   125   63  125 1    
   126   63  126 1    
   127   64   65 am   BACKBONE|DICT|INTERRES
   128   64  127 1    
   129   65   66 2    
@<TRIPOS>SUBSTRUCTURE
     1 UNK         1 GROUP             0       ****    0 ROOT    
