@<TRIPOS>MOLECULE
3R135
127   129    1
SMALL
USER_CHARGES


@<TRIPOS>ATOM
      1 CA        -78.8495   27.2860  -74.4297 C.3       0 UNK        -0.1998 
      2 C         -79.4069   26.6205  -73.1839 C.2       0 UNK         0.4909 
      3 O         -80.5863   26.2701  -73.1501 O.2       0 UNK        -0.5240 
      4 N         -78.5562   26.4494  -72.1635 N.am      1 UNK        -0.4739 
      5 CA        -78.8651   25.8240  -70.8685 C.3       1 UNK         0.0864 
      6 C6        -79.8273   26.6749  -69.9909 C.3       11 UNK        -0.0881 
      7 S7        -79.0994   28.2743  -69.4983 S.3       11 UNK        -0.2682 
      8 C8        -80.0816   29.4973  -70.4296 C.3       11 UNK         0.0289 
      9 C9        -79.2078   30.3501  -71.3403 C.ar      11 UNK        -0.0687 
     10 C10       -79.3618   30.2900  -72.7294 C.ar      11 UNK        -0.0823 
     11 C11       -78.5619   31.0711  -73.5710 C.ar      11 UNK        -0.0830 
     12 C12       -77.6220   31.9373  -73.0060 C.ar      11 UNK        -0.1021 
     13 C13       -77.4345   31.9848  -71.6227 C.ar      11 UNK        -0.0753 
     14 C14       -78.2451   31.2054  -70.7931 C.ar      11 UNK        -0.0933 
     15 C15       -76.3359   32.8593  -71.0348 C.3       11 UNK         0.0166 
     16 S16       -74.8755   31.8935  -70.5145 S.3       11 UNK        -0.2615 
     17 C17       -74.3695   31.0431  -72.0555 C.3       11 UNK        -0.0865 
     18 CA        -74.1941   29.5040  -71.9199 C.3       10 UNK         0.0862 
     19 C         -75.4926   28.7311  -71.5571 C.2       10 UNK         0.5551 
     20 N         -75.8900   28.7515  -70.2944 N.am      10 UNK        -0.7319 
     21 O         -76.1285   28.0957  -72.3983 O.2       10 UNK        -0.5018 
     22 N         -73.6253   28.9358  -73.1422 N.am      10 UNK        -0.4509 
     23 C         -72.3334   28.9041  -73.4804 C.2       10 UNK         0.4899 
     24 O         -71.4409   29.4362  -72.8183 O.2       10 UNK        -0.4839 
     25 CA        -71.9877   28.1530  -74.7835 C.3       9 UNK         0.0222 
     26 CB        -70.5192   27.6809  -74.8365 C.3       9 UNK        -0.1966 
     27 N         -72.9082   27.0453  -75.0771 N.am      9 UNK        -0.4218 
     28 C         -73.1228   25.9472  -74.3328 C.2       9 UNK         0.5020 
     29 O         -72.5344   25.6968  -73.2802 O.2       9 UNK        -0.5274 
     30 CA        -74.1905   24.9630  -74.8392 C.3       8 UNK         0.0270 
     31 CB        -75.5820   25.3761  -74.3305 C.3       8 UNK        -0.1976 
     32 N         -74.2212   24.8445  -76.2977 N.am      8 UNK        -0.4313 
     33 C         -73.2583   24.2886  -77.0466 C.2       8 UNK         0.5041 
     34 O         -72.2265   23.7967  -76.5884 O.2       8 UNK        -0.5577 
     35 CA        -73.4860   24.2815  -78.5653 C.3       7 UNK         0.0284 
     36 CB        -74.4494   23.1522  -78.9688 C.3       7 UNK        -0.1958 
     37 N         -74.0125   25.5658  -79.0297 N.am      7 UNK        -0.4454 
     38 C         -73.2550   26.6097  -79.3931 C.2       7 UNK         0.5089 
     39 O         -72.0245   26.5833  -79.4287 O.2       7 UNK        -0.5125 
     40 CA        -73.9855   27.9071  -79.7935 C.3       6 UNK         0.0408 
     41 CB        -74.1453   27.9793  -81.3204 C.3       6 UNK        -0.1791 
     42 N         -75.2998   28.0695  -79.1639 N.am      6 UNK        -0.4762 
     43 C         -75.4940   28.2716  -77.8528 C.2       6 UNK         0.5007 
     44 O         -74.5798   28.3453  -77.0311 O.2       6 UNK        -0.5032 
     45 CA        -76.9591   28.3113  -77.3663 C.3       5 UNK         0.0783 
     46 C46       -77.5494   29.7445  -77.3973 C.3       11 UNK        -0.0857 
     47 S47       -77.0892   30.6742  -75.8968 S.3       11 UNK        -0.2512 
     48 C48       -78.7007   30.9671  -75.0864 C.3       11 UNK         0.0225 
     49 N         -77.8330   27.3310  -78.0308 N.am      5 UNK        -0.4615 
     50 C         -77.6162   26.0098  -78.0191 C.2       4 UNK         0.5053 
     51 O         -76.5897   25.4977  -77.5682 O.2       4 UNK        -0.5105 
     52 CA        -78.6989   25.0978  -78.6188 C.3       4 UNK         0.0263 
     53 CB        -78.4206   24.8546  -80.1104 C.3       4 UNK        -0.1981 
     54 N         -78.7060   23.8123  -77.9132 N.am      4 UNK        -0.4224 
     55 C         -79.0812   23.6712  -76.6345 C.2       3 UNK         0.4895 
     56 O         -79.7100   24.5309  -76.0135 O.2       3 UNK        -0.5091 
     57 CA        -78.6428   22.3876  -75.9126 C.3       3 UNK         0.0250 
     58 CB        -77.1941   21.9775  -76.2724 C.3       3 UNK        -0.1996 
     59 N         -78.7719   22.6159  -74.4723 N.am      3 UNK        -0.4254 
     60 C         -78.7536   21.6783  -73.5186 C.2       2 UNK         0.5004 
     61 O         -78.6276   20.4759  -73.7572 O.2       2 UNK        -0.5226 
     62 CA        -78.8983   22.1419  -72.0573 C.3       2 UNK         0.0269 
     63 CB        -77.9779   21.3511  -71.1059 C.3       2 UNK        -0.1926 
     64 N         -78.6572   23.5804  -71.8766 N.am      2 UNK        -0.4687 
     65 C         -79.3323   24.3531  -71.0120 C.2       1 UNK         0.5165 
     66 O         -80.2746   23.9360  -70.3344 O.2       1 UNK        -0.5079 
     67 H67       -78.1339   28.0664  -74.1733 H         1 UNK         0.0900 
     68 H68       -79.6493   27.7314  -75.0200 H         1 UNK         0.0900 
     69 H69       -78.3454   26.5454  -75.0470 H         1 UNK         0.0900 
     70 H70       -77.6221   26.8446  -72.2453 H         1 UNK         0.2959 
     71 H71       -77.9149   25.7609  -70.3355 H         1 UNK         0.1079 
     72 H72       -80.7865   26.8188  -70.4895 H         1 UNK         0.0837 
     73 H73       -80.0560   26.1522  -69.0603 H         1 UNK         0.0837 
     74 H74       -80.5935   30.1477  -69.7192 H         1 UNK         0.0685 
     75 H75       -80.8648   29.0030  -71.0053 H         1 UNK         0.0685 
     76 H76       -80.1021   29.6268  -73.1544 H         1 UNK         0.1434 
     77 H77       -77.0016   32.5440  -73.6515 H         1 UNK         0.1329 
     78 H78       -78.1054   31.2401  -69.7213 H         1 UNK         0.1335 
     79 H79       -76.7268   33.4001  -70.1717 H         1 UNK         0.0680 
     80 H80       -76.0220   33.6184  -71.7531 H         1 UNK         0.0680 
     81 H81       -75.0573   31.2664  -72.8692 H         1 UNK         0.1032 
     82 H82       -73.4204   31.4882  -72.3571 H         1 UNK         0.1032 
     83 H83       -73.4850   29.3103  -71.1123 H         1 UNK         0.0461 
     84 H84       -75.3931   29.3015  -69.6120 H         1 UNK         0.3453 
     85 H85       -76.7588   28.3042  -70.0457 H         1 UNK         0.3453 
     86 H86       -74.2976   28.4443  -73.7164 H         1 UNK         0.2984 
     87 H87       -72.1272   28.8750  -75.5893 H         1 UNK         0.0554 
     88 H88       -70.3031   27.1638  -75.7715 H         1 UNK         0.0847 
     89 H89       -70.2813   27.0037  -74.0157 H         1 UNK         0.0847 
     90 H90       -69.8333   28.5260  -74.7688 H         1 UNK         0.0847 
     91 H91       -73.4917   27.1913  -75.8970 H         1 UNK         0.3141 
     92 H92       -73.9559   23.9780  -74.4299 H         1 UNK         0.0743 
     93 H93       -75.5979   25.4279  -73.2410 H         1 UNK         0.0784 
     94 H94       -75.8695   26.3583  -74.7064 H         1 UNK         0.0784 
     95 H95       -76.3494   24.6647  -74.6333 H         1 UNK         0.0784 
     96 H96       -75.0664   25.1724  -76.7653 H         1 UNK         0.3213 
     97 H97       -72.5247   24.0878  -79.0469 H         1 UNK         0.0855 
     98 H98       -75.4399   23.2839  -78.5338 H         1 UNK         0.0814 
     99 H99       -74.0743   22.1835  -78.6359 H         1 UNK         0.0814 
    100 H100      -74.5648   23.0998  -80.0515 H         1 UNK         0.0814 
    101 H101      -75.0138   25.6959  -78.9613 H         1 UNK         0.3105 
    102 H102      -73.3588   28.7441  -79.4782 H         1 UNK         0.0547 
    103 H103      -74.7801   27.1774  -81.6995 H         1 UNK         0.0837 
    104 H104      -74.5804   28.9294  -81.6306 H         1 UNK         0.0837 
    105 H105      -73.1785   27.8912  -81.8182 H         1 UNK         0.0837 
    106 H106      -76.1091   27.9991  -79.7644 H         1 UNK         0.3020 
    107 H107      -76.9160   27.9892  -76.3251 H         1 UNK         0.1245 
    108 H108      -78.6373   29.7104  -77.4657 H         1 UNK         0.0781 
    109 H109      -77.2209   30.2983  -78.2791 H         1 UNK         0.0781 
    110 H110      -79.1356   31.8891  -75.4745 H         1 UNK         0.0836 
    111 H111      -79.3936   30.1656  -75.3434 H         1 UNK         0.0836 
    112 H112      -78.6837   27.6860  -78.4434 H         1 UNK         0.3022 
    113 H113      -79.6760   25.5720  -78.5043 H         1 UNK         0.0747 
    114 H114      -78.4349   25.7909  -80.6698 H         1 UNK         0.0793 
    115 H115      -79.1753   24.2040  -80.5528 H         1 UNK         0.0793 
    116 H116      -77.4448   24.3935  -80.2714 H         1 UNK         0.0793 
    117 H117      -78.1796   23.0657  -78.3412 H         1 UNK         0.3047 
    118 H118      -79.3306   21.5910  -76.2030 H         1 UNK         0.0822 
    119 H119      -77.1119   21.6771  -77.3170 H         1 UNK         0.0807 
    120 H120      -76.8540   21.1273  -75.6817 H         1 UNK         0.0807 
    121 H121      -76.4901   22.7939  -76.1090 H         1 UNK         0.0807 
    122 H122      -79.0017   23.5721  -74.2296 H         1 UNK         0.2946 
    123 H123      -79.9331   21.9121  -71.7929 H         1 UNK         0.1144 
    124 H124      -78.1671   20.2788  -71.1701 H         1 UNK         0.0793 
    125 H125      -78.1377   21.6401  -70.0671 H         1 UNK         0.0793 
    126 H126      -76.9255   21.5129  -71.3413 H         1 UNK         0.0793 
    127 H127      -77.8935   23.9851  -72.3999 H         1 UNK         0.2896 
@<TRIPOS>BOND
     1    1    2 1    
     2    1   67 1    
     3    1   68 1    
     4    1   69 1    
     5    2    3 2    
     6    2    4 am   BACKBONE|DICT|INTERRES
     7    4    5 1    
     8    4   70 1    
     9    5    6 1    
    10    5   65 1    
    11    5   71 1    
    12    6    7 1    
    13    6   72 1    
    14    6   73 1    
    15    7    8 1    
    16    8    9 1    
    17    8   74 1    
    18    8   75 1    
    19    9   10 ar   
    20    9   14 ar   
    21   10   11 ar   
    22   10   76 1    
    23   11   12 ar   
    24   11   48 1    
    25   12   13 ar   
    26   12   77 1    
    27   13   14 ar   
    28   13   15 1    
    29   14   78 1    
    30   15   16 1    
    31   15   79 1    
    32   15   80 1    
    33   16   17 1    
    34   17   18 1    
    35   17   81 1    
    36   17   82 1    
    37   18   19 1    
    38   18   22 1    
    39   18   83 1    
    40   19   20 am   BACKBONE|DICT|INTERRES
    41   19   21 2    
    42   20   84 1    
    43   20   85 1    
    44   22   23 am   BACKBONE|DICT|INTERRES
    45   22   86 1    
    46   23   24 2    
    47   23   25 1    
    48   25   26 1    
    49   25   27 1    
    50   25   87 1    
    51   26   88 1    
    52   26   89 1    
    53   26   90 1    
    54   27   28 am   BACKBONE|DICT|INTERRES
    55   27   91 1    
    56   28   29 2    
    57   28   30 1    
    58   30   31 1    
    59   30   32 1    
    60   30   92 1    
    61   31   93 1    
    62   31   94 1    
    63   31   95 1    
    64   32   33 am   BACKBONE|DICT|INTERRES
    65   32   96 1    
    66   33   34 2    
    67   33   35 1    
    68   35   36 1    
    69   35   37 1    
    70   35   97 1    
    71   36   98 1    
    72   36   99 1    
    73   36  100 1    
    74   37   38 am   BACKBONE|DICT|INTERRES
    75   37  101 1    
    76   38   39 2    
    77   38   40 1    
    78   40   41 1    
    79   40   42 1    
    80   40  102 1    
    81   41  103 1    
    82   41  104 1    
    83   41  105 1    
    84   42   43 am   BACKBONE|DICT|INTERRES
    85   42  106 1    
    86   43   44 2    
    87   43   45 1    
    88   45   46 1    
    89   45   49 1    
    90   45  107 1    
    91   46   47 1    
    92   46  108 1    
    93   46  109 1    
    94   47   48 1    
    95   48  110 1    
    96   48  111 1    
    97   49   50 am   BACKBONE|DICT|INTERRES
    98   49  112 1    
    99   50   51 2    
   100   50   52 1    
   101   52   53 1    
   102   52   54 1    
   103   52  113 1    
   104   53  114 1    
   105   53  115 1    
   106   53  116 1    
   107   54   55 am   BACKBONE|DICT|INTERRES
   108   54  117 1    
   109   55   56 2    
   110   55   57 1    
   111   57   58 1    
   112   57   59 1    
   113   57  118 1    
   114   58  119 1    
   115   58  120 1    
   116   58  121 1    
   117   59   60 am   BACKBONE|DICT|INTERRES
   118   59  122 1    
   119   60   61 2    
   120   60   62 1    
   121   62   63 1    
   122   62   64 1    
   123   62  123 1    
   124   63  124 1    
   125   63  125 1    
   126   63  126 1    
   127   64   65 am   BACKBONE|DICT|INTERRES
   128   64  127 1    
   129   65   66 2    
@<TRIPOS>SUBSTRUCTURE
     1 UNK         1 GROUP             0       ****    0 ROOT    
