@<TRIPOS>MOLECULE
3R135
127   129    1
SMALL
USER_CHARGES


@<TRIPOS>ATOM
      1 CA        -77.5905   31.1708  -76.0673 C.3       0 UNK        -0.1998 
      2 C         -78.5228   30.0382  -75.6674 C.2       0 UNK         0.4909 
      3 O         -79.6166   29.9243  -76.2219 O.2       0 UNK        -0.5240 
      4 N         -78.0892   29.1949  -74.7191 N.am      1 UNK        -0.4739 
      5 CA        -78.7713   28.0014  -74.1997 C.3       1 UNK         0.0864 
      6 C6        -80.1701   28.3124  -73.5980 C.3       11 UNK        -0.0881 
      7 S7        -80.7096   27.0835  -72.3638 S.3       11 UNK        -0.2682 
      8 C8        -80.2489   27.8975  -70.8000 C.3       11 UNK         0.0289 
      9 C9        -78.7389   27.9547  -70.6281 C.ar      11 UNK        -0.0687 
     10 C10       -78.0363   26.8046  -70.2587 C.ar      11 UNK        -0.0823 
     11 C11       -76.6430   26.8284  -70.1421 C.ar      11 UNK        -0.0830 
     12 C12       -75.9567   28.0213  -70.3838 C.ar      11 UNK        -0.1021 
     13 C13       -76.6476   29.1829  -70.7400 C.ar      11 UNK        -0.0753 
     14 C14       -78.0413   29.1456  -70.8530 C.ar      11 UNK        -0.0933 
     15 C15       -75.8814   30.4749  -70.9859 C.3       11 UNK         0.0166 
     16 S16       -76.1319   31.0990  -72.6761 S.3       11 UNK        -0.2615 
     17 C17       -74.6669   32.1687  -72.8885 C.3       11 UNK        -0.0865 
     18 CA        -73.7785   31.7259  -74.0869 C.3       10 UNK         0.0862 
     19 C         -72.5891   32.6979  -74.3573 C.2       10 UNK         0.5551 
     20 N         -71.4503   32.2296  -74.8574 N.am      10 UNK        -0.7319 
     21 O         -72.7062   33.9016  -74.1399 O.2       10 UNK        -0.5018 
     22 N         -73.3999   30.3037  -74.0528 N.am      10 UNK        -0.4509 
     23 C         -72.6258   29.7041  -73.1359 C.2       10 UNK         0.4899 
     24 O         -72.2172   30.2554  -72.1137 O.2       10 UNK        -0.4839 
     25 CA        -72.2020   28.2460  -73.4109 C.3       9 UNK         0.0222 
     26 CB        -73.0317   27.2754  -72.5590 C.3       9 UNK        -0.1966 
     27 N         -72.2967   27.8474  -74.8192 N.am      9 UNK        -0.4218 
     28 C         -71.6175   28.4107  -75.8296 C.2       9 UNK         0.5020 
     29 O         -70.7586   29.2812  -75.6760 O.2       9 UNK        -0.5274 
     30 CA        -71.9962   27.9760  -77.2565 C.3       8 UNK         0.0270 
     31 CB        -71.0619   26.8555  -77.7399 C.3       8 UNK        -0.1976 
     32 N         -73.3885   27.5415  -77.4217 N.am      8 UNK        -0.4313 
     33 C         -74.4952   28.2259  -77.1049 C.2       8 UNK         0.5041 
     34 O         -74.4813   29.3296  -76.5603 O.2       8 UNK        -0.5577 
     35 CA        -75.8544   27.5722  -77.4168 C.3       7 UNK         0.0284 
     36 CB        -76.3377   27.9645  -78.8262 C.3       7 UNK        -0.1958 
     37 N         -75.9224   26.1165  -77.1980 N.am      7 UNK        -0.4454 
     38 C         -75.2682   25.1380  -77.8419 C.2       7 UNK         0.5089 
     39 O         -74.4831   25.3446  -78.7683 O.2       7 UNK        -0.5125 
     40 CA        -75.5098   23.6912  -77.3639 C.3       6 UNK         0.0408 
     41 CB        -74.2894   22.7835  -77.6236 C.3       6 UNK        -0.1791 
     42 N         -75.9417   23.5678  -75.9652 N.am      6 UNK        -0.4762 
     43 C         -75.2994   23.9822  -74.8590 C.2       6 UNK         0.5007 
     44 O         -74.2472   24.6237  -74.8813 O.2       6 UNK        -0.5032 
     45 CA        -75.9519   23.6153  -73.5092 C.3       5 UNK         0.0783 
     46 C46       -75.6755   24.6692  -72.4061 C.3       11 UNK        -0.0857 
     47 S47       -76.2749   24.1307  -70.7698 S.3       11 UNK        -0.2512 
     48 C48       -75.8743   25.5764  -69.7372 C.3       11 UNK         0.0225 
     49 N         -77.3875   23.3690  -73.6928 N.am      5 UNK        -0.4615 
     50 C         -78.0363   22.2690  -73.2919 C.2       4 UNK         0.5053 
     51 O         -77.4961   21.3061  -72.7468 O.2       4 UNK        -0.5105 
     52 CA        -79.5480   22.2317  -73.5601 C.3       4 UNK         0.0263 
     53 CB        -80.2882   23.2077  -72.6316 C.3       4 UNK        -0.1981 
     54 N         -79.8805   22.5341  -74.9526 N.am      4 UNK        -0.4224 
     55 C         -79.5749   21.7731  -76.0111 C.2       3 UNK         0.4895 
     56 O         -78.9676   20.7055  -75.9319 O.2       3 UNK        -0.5091 
     57 CA        -80.0023   22.2837  -77.4008 C.3       3 UNK         0.0250 
     58 CB        -81.4789   21.9464  -77.6875 C.3       3 UNK        -0.1996 
     59 N         -79.7097   23.7044  -77.6489 N.am      3 UNK        -0.4254 
     60 C         -80.2282   24.7840  -77.0464 C.2       2 UNK         0.5004 
     61 O         -81.1087   24.7432  -76.1837 O.2       2 UNK        -0.5226 
     62 CA        -79.6439   26.1391  -77.4745 C.3       2 UNK         0.0269 
     63 CB        -80.5226   26.7908  -78.5530 C.3       2 UNK        -0.1926 
     64 N         -79.4960   27.0695  -76.3535 N.am      2 UNK        -0.4687 
     65 C         -78.7892   26.8577  -75.2354 C.2       1 UNK         0.5165 
     66 O         -78.1101   25.8459  -75.0424 O.2       1 UNK        -0.5079 
     67 H67       -77.9300   32.1099  -75.6316 H         1 UNK         0.0900 
     68 H68       -77.5729   31.2804  -77.1513 H         1 UNK         0.0900 
     69 H69       -76.5693   30.9869  -75.7355 H         1 UNK         0.0900 
     70 H70       -77.1903   29.3818  -74.2930 H         1 UNK         0.2959 
     71 H71       -78.1315   27.6548  -73.3864 H         1 UNK         0.1079 
     72 H72       -80.9330   28.3828  -74.3750 H         1 UNK         0.0837 
     73 H73       -80.1582   29.2925  -73.1191 H         1 UNK         0.0837 
     74 H74       -80.6862   28.8963  -70.7606 H         1 UNK         0.0685 
     75 H75       -80.6865   27.3400  -69.9706 H         1 UNK         0.0685 
     76 H76       -78.5746   25.8833  -70.0814 H         1 UNK         0.1434 
     77 H77       -74.8810   28.0496  -70.2840 H         1 UNK         0.1329 
     78 H78       -78.5778   30.0411  -71.1355 H         1 UNK         0.1335 
     79 H79       -76.2032   31.2325  -70.2703 H         1 UNK         0.0680 
     80 H80       -74.8156   30.3161  -70.8147 H         1 UNK         0.0680 
     81 H81       -74.0801   32.2012  -71.9696 H         1 UNK         0.1032 
     82 H82       -75.0282   33.1868  -73.0436 H         1 UNK         0.1032 
     83 H83       -74.3958   31.8186  -74.9805 H         1 UNK         0.0461 
     84 H84       -70.6922   32.8682  -75.0379 H         1 UNK         0.3453 
     85 H85       -71.3361   31.2425  -75.0541 H         1 UNK         0.3453 
     86 H86       -73.6854   29.7788  -74.8756 H         1 UNK         0.2984 
     87 H87       -71.1554   28.1509  -73.1150 H         1 UNK         0.0554 
     88 H88       -72.7079   26.2452  -72.7077 H         1 UNK         0.0847 
     89 H89       -74.0942   27.3366  -72.7984 H         1 UNK         0.0847 
     90 H90       -72.9184   27.4972  -71.4975 H         1 UNK         0.0847 
     91 H91       -72.9751   27.1329  -75.0461 H         1 UNK         0.3141 
     92 H92       -71.8552   28.8441  -77.9033 H         1 UNK         0.0743 
     93 H93       -71.1916   25.9435  -77.1554 H         1 UNK         0.0784 
     94 H94       -71.2433   26.6110  -78.7868 H         1 UNK         0.0784 
     95 H95       -70.0157   27.1533  -77.6546 H         1 UNK         0.0784 
     96 H96       -73.5374   26.6568  -77.9034 H         1 UNK         0.3213 
     97 H97       -76.5571   28.0043  -76.7074 H         1 UNK         0.0855 
     98 H98       -76.3558   29.0493  -78.9400 H         1 UNK         0.0814 
     99 H99       -77.3482   27.6073  -79.0189 H         1 UNK         0.0814 
    100 H100      -75.6875   27.5705  -79.6076 H         1 UNK         0.0814 
    101 H101      -76.5032   25.8306  -76.4162 H         1 UNK         0.3105 
    102 H102      -76.3352   23.3126  -77.9681 H         1 UNK         0.0547 
    103 H103      -74.0421   22.7481  -78.6854 H         1 UNK         0.0837 
    104 H104      -73.4035   23.1382  -77.0957 H         1 UNK         0.0837 
    105 H105      -74.4812   21.7587  -77.3060 H         1 UNK         0.0837 
    106 H106      -76.8026   23.0595  -75.8183 H         1 UNK         0.3020 
    107 H107      -75.4568   22.6892  -73.2087 H         1 UNK         0.1245 
    108 H108      -76.1394   25.6227  -72.6655 H         1 UNK         0.0781 
    109 H109      -74.6052   24.8529  -72.3101 H         1 UNK         0.0781 
    110 H110      -74.7974   25.7475  -69.7772 H         1 UNK         0.0836 
    111 H111      -76.1100   25.3419  -68.6984 H         1 UNK         0.0836 
    112 H112      -77.9013   24.1292  -74.1308 H         1 UNK         0.3022 
    113 H113      -79.9014   21.2213  -73.3436 H         1 UNK         0.0747 
    114 H114      -81.3688   23.1287  -72.7510 H         1 UNK         0.0793 
    115 H115      -80.0600   23.0020  -71.5849 H         1 UNK         0.0793 
    116 H116      -80.0050   24.2417  -72.8292 H         1 UNK         0.0793 
    117 H117      -80.3879   23.3975  -75.1370 H         1 UNK         0.3047 
    118 H118      -79.4012   21.7337  -78.1272 H         1 UNK         0.0822 
    119 H119      -81.7638   22.2417  -78.6973 H         1 UNK         0.0807 
    120 H120      -82.1569   22.4397  -76.9906 H         1 UNK         0.0807 
    121 H121      -81.6550   20.8732  -77.6024 H         1 UNK         0.0807 
    122 H122      -79.0008   23.8616  -78.3515 H         1 UNK         0.2946 
    123 H123      -78.6504   25.9697  -77.8907 H         1 UNK         0.1144 
    124 H124      -80.6288   26.1387  -79.4211 H         1 UNK         0.0793 
    125 H125      -80.0913   27.7288  -78.9037 H         1 UNK         0.0793 
    126 H126      -81.5253   27.0024  -78.1789 H         1 UNK         0.0793 
    127 H127      -79.9444   27.9757  -76.4453 H         1 UNK         0.2896 
@<TRIPOS>BOND
     1    1    2 1    
     2    1   67 1    
     3    1   68 1    
     4    1   69 1    
     5    2    3 2    
     6    2    4 am   BACKBONE|DICT|INTERRES
     7    4    5 1    
     8    4   70 1    
     9    5    6 1    
    10    5   65 1    
    11    5   71 1    
    12    6    7 1    
    13    6   72 1    
    14    6   73 1    
    15    7    8 1    
    16    8    9 1    
    17    8   74 1    
    18    8   75 1    
    19    9   10 ar   
    20    9   14 ar   
    21   10   11 ar   
    22   10   76 1    
    23   11   12 ar   
    24   11   48 1    
    25   12   13 ar   
    26   12   77 1    
    27   13   14 ar   
    28   13   15 1    
    29   14   78 1    
    30   15   16 1    
    31   15   79 1    
    32   15   80 1    
    33   16   17 1    
    34   17   18 1    
    35   17   81 1    
    36   17   82 1    
    37   18   19 1    
    38   18   22 1    
    39   18   83 1    
    40   19   20 am   BACKBONE|DICT|INTERRES
    41   19   21 2    
    42   20   84 1    
    43   20   85 1    
    44   22   23 am   BACKBONE|DICT|INTERRES
    45   22   86 1    
    46   23   24 2    
    47   23   25 1    
    48   25   26 1    
    49   25   27 1    
    50   25   87 1    
    51   26   88 1    
    52   26   89 1    
    53   26   90 1    
    54   27   28 am   BACKBONE|DICT|INTERRES
    55   27   91 1    
    56   28   29 2    
    57   28   30 1    
    58   30   31 1    
    59   30   32 1    
    60   30   92 1    
    61   31   93 1    
    62   31   94 1    
    63   31   95 1    
    64   32   33 am   BACKBONE|DICT|INTERRES
    65   32   96 1    
    66   33   34 2    
    67   33   35 1    
    68   35   36 1    
    69   35   37 1    
    70   35   97 1    
    71   36   98 1    
    72   36   99 1    
    73   36  100 1    
    74   37   38 am   BACKBONE|DICT|INTERRES
    75   37  101 1    
    76   38   39 2    
    77   38   40 1    
    78   40   41 1    
    79   40   42 1    
    80   40  102 1    
    81   41  103 1    
    82   41  104 1    
    83   41  105 1    
    84   42   43 am   BACKBONE|DICT|INTERRES
    85   42  106 1    
    86   43   44 2    
    87   43   45 1    
    88   45   46 1    
    89   45   49 1    
    90   45  107 1    
    91   46   47 1    
    92   46  108 1    
    93   46  109 1    
    94   47   48 1    
    95   48  110 1    
    96   48  111 1    
    97   49   50 am   BACKBONE|DICT|INTERRES
    98   49  112 1    
    99   50   51 2    
   100   50   52 1    
   101   52   53 1    
   102   52   54 1    
   103   52  113 1    
   104   53  114 1    
   105   53  115 1    
   106   53  116 1    
   107   54   55 am   BACKBONE|DICT|INTERRES
   108   54  117 1    
   109   55   56 2    
   110   55   57 1    
   111   57   58 1    
   112   57   59 1    
   113   57  118 1    
   114   58  119 1    
   115   58  120 1    
   116   58  121 1    
   117   59   60 am   BACKBONE|DICT|INTERRES
   118   59  122 1    
   119   60   61 2    
   120   60   62 1    
   121   62   63 1    
   122   62   64 1    
   123   62  123 1    
   124   63  124 1    
   125   63  125 1    
   126   63  126 1    
   127   64   65 am   BACKBONE|DICT|INTERRES
   128   64  127 1    
   129   65   66 2    
@<TRIPOS>SUBSTRUCTURE
     1 UNK         1 GROUP             0       ****    0 ROOT    
