@<TRIPOS>MOLECULE
3R135
127   129    1
SMALL
USER_CHARGES


@<TRIPOS>ATOM
      1 CA        -80.1338   29.4472  -71.1445 C.3       0 UNK        -0.1998 
      2 C         -80.7363   29.2654  -72.5282 C.2       0 UNK         0.4909 
      3 O         -81.9588   29.2221  -72.6690 O.2       0 UNK        -0.5240 
      4 N         -79.8808   29.1614  -73.5529 N.am      1 UNK        -0.4739 
      5 CA        -80.2648   29.0083  -74.9653 C.3       1 UNK         0.0864 
      6 C6        -79.1105   29.3440  -75.9466 C.3       11 UNK        -0.0881 
      7 S7        -78.2066   30.8758  -75.5246 S.3       11 UNK        -0.2682 
      8 C8        -76.5845   30.2143  -75.0240 C.3       11 UNK         0.0289 
      9 C9        -76.6416   29.4611  -73.7015 C.ar      11 UNK        -0.0687 
     10 C10       -76.8486   28.0773  -73.6789 C.ar      11 UNK        -0.0823 
     11 C11       -76.8980   27.3855  -72.4646 C.ar      11 UNK        -0.0830 
     12 C12       -76.7092   28.0850  -71.2696 C.ar      11 UNK        -0.1021 
     13 C13       -76.4877   29.4648  -71.2788 C.ar      11 UNK        -0.0753 
     14 C14       -76.4672   30.1492  -72.4973 C.ar      11 UNK        -0.0933 
     15 C15       -76.2969   30.2089  -69.9656 C.3       11 UNK         0.0166 
     16 S16       -74.5623   30.1779  -69.4102 S.3       11 UNK        -0.2615 
     17 C17       -73.8699   31.6428  -70.2589 C.3       11 UNK        -0.0865 
     18 CA        -72.4224   31.4571  -70.8024 C.3       10 UNK         0.0862 
     19 C         -71.3551   31.3210  -69.6834 C.2       10 UNK         0.5551 
     20 N         -71.1842   32.3455  -68.8587 N.am      10 UNK        -0.7319 
     21 O         -70.6756   30.3024  -69.5574 O.2       10 UNK        -0.5018 
     22 N         -72.3007   30.3700  -71.7797 N.am      10 UNK        -0.4509 
     23 C         -72.8164   30.3670  -73.0109 C.2       10 UNK         0.4899 
     24 O         -73.4982   31.2894  -73.4647 O.2       10 UNK        -0.4839 
     25 CA        -72.5056   29.1215  -73.8669 C.3       9 UNK         0.0222 
     26 CB        -73.0781   27.8433  -73.2294 C.3       9 UNK        -0.1966 
     27 N         -73.0307   29.2442  -75.2279 N.am      9 UNK        -0.4218 
     28 C         -72.5340   30.0348  -76.1858 C.2       9 UNK         0.5020 
     29 O         -71.4696   30.6494  -76.0832 O.2       9 UNK        -0.5274 
     30 CA        -73.3711   30.1444  -77.4770 C.3       8 UNK         0.0270 
     31 CB        -72.8632   31.2544  -78.4170 C.3       8 UNK        -0.1976 
     32 N         -73.4298   28.8847  -78.2225 N.am      8 UNK        -0.4313 
     33 C         -74.1276   27.7985  -77.8714 C.2       8 UNK         0.5041 
     34 O         -74.8031   27.7113  -76.8399 O.2       8 UNK        -0.5577 
     35 CA        -74.0436   26.6022  -78.8232 C.3       7 UNK         0.0284 
     36 CB        -72.6921   25.8763  -78.6768 C.3       7 UNK        -0.1958 
     37 N         -75.1341   25.6971  -78.4871 N.am      7 UNK        -0.4454 
     38 C         -75.6266   24.7165  -79.2493 C.2       7 UNK         0.5089 
     39 O         -75.2413   24.4897  -80.3979 O.2       7 UNK        -0.5125 
     40 CA        -76.7302   23.8419  -78.6122 C.3       6 UNK         0.0408 
     41 CB        -76.8335   22.4528  -79.2760 C.3       6 UNK        -0.1791 
     42 N         -76.6114   23.7175  -77.1498 N.am      6 UNK        -0.4762 
     43 C         -75.5545   23.2461  -76.4611 C.2       6 UNK         0.5007 
     44 O         -74.5389   22.7804  -76.9784 O.2       6 UNK        -0.5032 
     45 CA        -75.6531   23.3207  -74.9300 C.3       5 UNK         0.0783 
     46 C46       -75.5303   24.7890  -74.4525 C.3       11 UNK        -0.0857 
     47 S47       -75.6202   24.9353  -72.6373 S.3       11 UNK        -0.2512 
     48 C48       -77.1572   25.8861  -72.4311 C.3       11 UNK         0.0225 
     49 N         -76.8964   22.6739  -74.5069 N.am      5 UNK        -0.4615 
     50 C         -76.9876   21.3858  -74.1456 C.2       4 UNK         0.5053 
     51 O         -76.0176   20.6413  -74.0008 O.2       4 UNK        -0.5105 
     52 CA        -78.4033   20.8170  -73.9309 C.3       4 UNK         0.0263 
     53 CB        -78.8323   20.9841  -72.4642 C.3       4 UNK        -0.1981 
     54 N         -79.3989   21.4457  -74.8006 N.am      4 UNK        -0.4224 
     55 C         -79.4040   21.3778  -76.1405 C.2       3 UNK         0.4895 
     56 O         -78.6844   20.6150  -76.7842 O.2       3 UNK        -0.5091 
     57 CA        -80.3437   22.3406  -76.8949 C.3       3 UNK         0.0250 
     58 CB        -81.4790   21.5628  -77.5806 C.3       3 UNK        -0.1996 
     59 N         -80.9243   23.3954  -76.0539 N.am      3 UNK        -0.4254 
     60 C         -80.2443   24.3899  -75.4662 C.2       2 UNK         0.5004 
     61 O         -79.0240   24.5534  -75.5770 O.2       2 UNK        -0.5226 
     62 CA        -81.0595   25.2600  -74.4990 C.3       2 UNK         0.0269 
     63 CB        -81.0419   24.6405  -73.0908 C.3       2 UNK        -0.1926 
     64 N         -80.5467   26.6246  -74.4151 N.am      2 UNK        -0.4687 
     65 C         -80.8386   27.6079  -75.2774 C.2       1 UNK         0.5165 
     66 O         -81.5416   27.4499  -76.2768 O.2       1 UNK        -0.5079 
     67 H67       -80.8774   29.8334  -70.4478 H         1 UNK         0.0900 
     68 H68       -79.3038   30.1523  -71.1719 H         1 UNK         0.0900 
     69 H69       -79.7684   28.4948  -70.7613 H         1 UNK         0.0900 
     70 H70       -78.8855   29.2319  -73.3811 H         1 UNK         0.2959 
     71 H71       -81.0709   29.7212  -75.1541 H         1 UNK         0.1079 
     72 H72       -78.4061   28.5159  -76.0277 H         1 UNK         0.0837 
     73 H73       -79.5145   29.4709  -76.9528 H         1 UNK         0.0837 
     74 H74       -76.2070   29.5673  -75.8137 H         1 UNK         0.0685 
     75 H75       -75.8762   31.0405  -74.9461 H         1 UNK         0.0685 
     76 H76       -76.9678   27.5391  -74.6076 H         1 UNK         0.1434 
     77 H77       -76.7315   27.5545  -70.3274 H         1 UNK         0.1329 
     78 H78       -76.3018   31.2175  -72.5137 H         1 UNK         0.1335 
     79 H79       -76.9154   29.7467  -69.1948 H         1 UNK         0.0680 
     80 H80       -76.6457   31.2393  -70.0503 H         1 UNK         0.0680 
     81 H81       -73.9136   32.4868  -69.5690 H         1 UNK         0.1032 
     82 H82       -74.5254   31.9221  -71.0831 H         1 UNK         0.1032 
     83 H83       -72.1543   32.3709  -71.3366 H         1 UNK         0.0461 
     84 H84       -71.7234   33.1916  -68.9548 H         1 UNK         0.3453 
     85 H85       -70.4945   32.2735  -68.1270 H         1 UNK         0.3453 
     86 H86       -71.7331   29.5951  -71.4621 H         1 UNK         0.2984 
     87 H87       -71.4203   29.0196  -73.9288 H         1 UNK         0.0554 
     88 H88       -72.9004   26.9692  -73.8559 H         1 UNK         0.0847 
     89 H89       -74.1513   27.9236  -73.0657 H         1 UNK         0.0847 
     90 H90       -72.6215   27.6399  -72.2605 H         1 UNK         0.0847 
     91 H91       -73.8790   28.7294  -75.4471 H         1 UNK         0.3141 
     92 H92       -74.3864   30.4128  -77.1789 H         1 UNK         0.0743 
     93 H93       -73.5172   31.3734  -79.2812 H         1 UNK         0.0784 
     94 H94       -72.8321   32.2163  -77.9032 H         1 UNK         0.0784 
     95 H95       -71.8565   31.0474  -78.7827 H         1 UNK         0.0784 
     96 H96       -72.8753   28.8450  -79.0659 H         1 UNK         0.3213 
     97 H97       -74.1728   26.9565  -79.8482 H         1 UNK         0.0855 
     98 H98       -72.5448   25.5065  -77.6610 H         1 UNK         0.0814 
     99 H99       -71.8576   26.5390  -78.9087 H         1 UNK         0.0814 
    100 H100      -72.6217   25.0242  -79.3530 H         1 UNK         0.0814 
    101 H101      -75.5358   25.8758  -77.5744 H         1 UNK         0.3105 
    102 H102      -77.6702   24.3643  -78.7947 H         1 UNK         0.0547 
    103 H103      -77.0301   22.5413  -80.3451 H         1 UNK         0.0837 
    104 H104      -75.9130   21.8799  -79.1618 H         1 UNK         0.0837 
    105 H105      -77.6470   21.8672  -78.8519 H         1 UNK         0.0837 
    106 H106      -77.4020   24.0772  -76.6210 H         1 UNK         0.3020 
    107 H107      -74.7994   22.7733  -74.5228 H         1 UNK         0.1245 
    108 H108      -76.3012   25.4072  -74.9127 H         1 UNK         0.0781 
    109 H109      -74.5770   25.2146  -74.7721 H         1 UNK         0.0781 
    110 H110      -77.6108   25.6089  -71.4783 H         1 UNK         0.0836 
    111 H111      -77.8794   25.6057  -73.1983 H         1 UNK         0.0836 
    112 H112      -77.7439   23.2134  -74.6335 H         1 UNK         0.3022 
    113 H113      -78.3745   19.7508  -74.1657 H         1 UNK         0.0747 
    114 H114      -79.8073   20.5321  -72.2808 H         1 UNK         0.0793 
    115 H115      -78.1211   20.4992  -71.7939 H         1 UNK         0.0793 
    116 H116      -78.8872   22.0345  -72.1748 H         1 UNK         0.0793 
    117 H117      -80.0561   22.0697  -74.3588 H         1 UNK         0.3047 
    118 H118      -79.7455   22.8263  -77.6687 H         1 UNK         0.0822 
    119 H119      -82.1022   22.2207  -78.1867 H         1 UNK         0.0807 
    120 H120      -82.1219   21.0625  -76.8553 H         1 UNK         0.0807 
    121 H121      -81.0810   20.7955  -78.2465 H         1 UNK         0.0807 
    122 H122      -81.9188   23.3278  -75.8882 H         1 UNK         0.2946 
    123 H123      -82.0944   25.3006  -74.8480 H         1 UNK         0.1144 
    124 H124      -81.6125   25.2461  -72.3860 H         1 UNK         0.0793 
    125 H125      -80.0289   24.5405  -72.7001 H         1 UNK         0.0793 
    126 H126      -81.4906   23.6464  -73.0913 H         1 UNK         0.0793 
    127 H127      -79.9454   26.8435  -73.6356 H         1 UNK         0.2896 
@<TRIPOS>BOND
     1    1    2 1    
     2    1   67 1    
     3    1   68 1    
     4    1   69 1    
     5    2    3 2    
     6    2    4 am   BACKBONE|DICT|INTERRES
     7    4    5 1    
     8    4   70 1    
     9    5    6 1    
    10    5   65 1    
    11    5   71 1    
    12    6    7 1    
    13    6   72 1    
    14    6   73 1    
    15    7    8 1    
    16    8    9 1    
    17    8   74 1    
    18    8   75 1    
    19    9   10 ar   
    20    9   14 ar   
    21   10   11 ar   
    22   10   76 1    
    23   11   12 ar   
    24   11   48 1    
    25   12   13 ar   
    26   12   77 1    
    27   13   14 ar   
    28   13   15 1    
    29   14   78 1    
    30   15   16 1    
    31   15   79 1    
    32   15   80 1    
    33   16   17 1    
    34   17   18 1    
    35   17   81 1    
    36   17   82 1    
    37   18   19 1    
    38   18   22 1    
    39   18   83 1    
    40   19   20 am   BACKBONE|DICT|INTERRES
    41   19   21 2    
    42   20   84 1    
    43   20   85 1    
    44   22   23 am   BACKBONE|DICT|INTERRES
    45   22   86 1    
    46   23   24 2    
    47   23   25 1    
    48   25   26 1    
    49   25   27 1    
    50   25   87 1    
    51   26   88 1    
    52   26   89 1    
    53   26   90 1    
    54   27   28 am   BACKBONE|DICT|INTERRES
    55   27   91 1    
    56   28   29 2    
    57   28   30 1    
    58   30   31 1    
    59   30   32 1    
    60   30   92 1    
    61   31   93 1    
    62   31   94 1    
    63   31   95 1    
    64   32   33 am   BACKBONE|DICT|INTERRES
    65   32   96 1    
    66   33   34 2    
    67   33   35 1    
    68   35   36 1    
    69   35   37 1    
    70   35   97 1    
    71   36   98 1    
    72   36   99 1    
    73   36  100 1    
    74   37   38 am   BACKBONE|DICT|INTERRES
    75   37  101 1    
    76   38   39 2    
    77   38   40 1    
    78   40   41 1    
    79   40   42 1    
    80   40  102 1    
    81   41  103 1    
    82   41  104 1    
    83   41  105 1    
    84   42   43 am   BACKBONE|DICT|INTERRES
    85   42  106 1    
    86   43   44 2    
    87   43   45 1    
    88   45   46 1    
    89   45   49 1    
    90   45  107 1    
    91   46   47 1    
    92   46  108 1    
    93   46  109 1    
    94   47   48 1    
    95   48  110 1    
    96   48  111 1    
    97   49   50 am   BACKBONE|DICT|INTERRES
    98   49  112 1    
    99   50   51 2    
   100   50   52 1    
   101   52   53 1    
   102   52   54 1    
   103   52  113 1    
   104   53  114 1    
   105   53  115 1    
   106   53  116 1    
   107   54   55 am   BACKBONE|DICT|INTERRES
   108   54  117 1    
   109   55   56 2    
   110   55   57 1    
   111   57   58 1    
   112   57   59 1    
   113   57  118 1    
   114   58  119 1    
   115   58  120 1    
   116   58  121 1    
   117   59   60 am   BACKBONE|DICT|INTERRES
   118   59  122 1    
   119   60   61 2    
   120   60   62 1    
   121   62   63 1    
   122   62   64 1    
   123   62  123 1    
   124   63  124 1    
   125   63  125 1    
   126   63  126 1    
   127   64   65 am   BACKBONE|DICT|INTERRES
   128   64  127 1    
   129   65   66 2    
@<TRIPOS>SUBSTRUCTURE
     1 UNK         1 GROUP             0       ****    0 ROOT    
