@<TRIPOS>MOLECULE
3R135
127   129    1
SMALL
USER_CHARGES


@<TRIPOS>ATOM
      1 CA        -82.8132   27.6122  -69.5591 C.3       0 UNK        -0.1998 
      2 C         -83.0010   27.3439  -71.0449 C.2       0 UNK         0.4909 
      3 O         -84.0062   26.7514  -71.4394 O.2       0 UNK        -0.5240 
      4 N         -82.0452   27.7847  -71.8712 N.am      1 UNK        -0.4739 
      5 CA        -82.0225   27.5637  -73.3189 C.3       1 UNK         0.0864 
      6 C6        -81.0150   28.4944  -74.0395 C.3       11 UNK        -0.0881 
      7 S7        -81.3261   30.2807  -73.7906 S.3       11 UNK        -0.2682 
      8 C8        -80.3725   30.7089  -72.2894 C.3       11 UNK         0.0289 
      9 C9        -78.9971   30.0580  -72.2487 C.ar      11 UNK        -0.0687 
     10 C10       -78.7431   29.0106  -71.3587 C.ar      11 UNK        -0.0823 
     11 C11       -77.5099   28.3545  -71.3596 C.ar      11 UNK        -0.0830 
     12 C12       -76.5091   28.7836  -72.2398 C.ar      11 UNK        -0.1021 
     13 C13       -76.7453   29.8413  -73.1237 C.ar      11 UNK        -0.0753 
     14 C14       -77.9914   30.4744  -73.1239 C.ar      11 UNK        -0.0933 
     15 C15       -75.6696   30.2926  -74.0983 C.3       11 UNK         0.0166 
     16 S16       -74.7686   31.7431  -73.4688 S.3       11 UNK        -0.2615 
     17 C17       -73.5233   30.9657  -72.3808 C.3       11 UNK        -0.0865 
     18 CA        -72.1068   30.9744  -73.0146 C.3       10 UNK         0.0862 
     19 C         -71.0268   30.4582  -72.0176 C.2       10 UNK         0.5551 
     20 N         -70.2057   29.4717  -72.3607 N.am      10 UNK        -0.7319 
     21 O         -70.9249   30.9734  -70.9070 O.2       10 UNK        -0.5018 
     22 N         -72.0980   30.2876  -74.3144 N.am      10 UNK        -0.4509 
     23 C         -71.2897   30.5803  -75.3386 C.2       10 UNK         0.4899 
     24 O         -70.4840   31.5125  -75.3344 O.2       10 UNK        -0.4839 
     25 CA        -71.4073   29.6604  -76.5707 C.3       9 UNK         0.0222 
     26 CB        -70.1740   29.7397  -77.4951 C.3       9 UNK        -0.1966 
     27 N         -71.7059   28.2620  -76.2287 N.am      9 UNK        -0.4218 
     28 C         -70.9759   27.4452  -75.4475 C.2       9 UNK         0.5020 
     29 O         -69.9539   27.8012  -74.8588 O.2       9 UNK        -0.5274 
     30 CA        -71.4676   25.9975  -75.2529 C.3       8 UNK         0.0270 
     31 CB        -71.8707   25.7555  -73.7879 C.3       8 UNK        -0.1976 
     32 N         -72.5820   25.6433  -76.1371 N.am      8 UNK        -0.4313 
     33 C         -72.4424   25.3607  -77.4418 C.2       8 UNK         0.5041 
     34 O         -71.3480   25.2863  -78.0023 O.2       8 UNK        -0.5577 
     35 CA        -73.7157   25.1455  -78.2829 C.3       7 UNK         0.0284 
     36 CB        -73.8916   23.6521  -78.6041 C.3       7 UNK        -0.1958 
     37 N         -74.9505   25.6599  -77.6812 N.am      7 UNK        -0.4454 
     38 C         -75.2019   26.9438  -77.3847 C.2       7 UNK         0.5089 
     39 O         -74.4095   27.8627  -77.5976 O.2       7 UNK        -0.5125 
     40 CA        -76.5239   27.2357  -76.6477 C.3       6 UNK         0.0408 
     41 CB        -77.6887   27.3599  -77.6394 C.3       6 UNK        -0.1791 
     42 N         -76.8439   26.2313  -75.6255 N.am      6 UNK        -0.4762 
     43 C         -76.0511   25.9506  -74.5779 C.2       6 UNK         0.5007 
     44 O         -74.9868   26.5311  -74.3655 O.2       6 UNK        -0.5032 
     45 CA        -76.4663   24.7901  -73.6569 C.3       5 UNK         0.0783 
     46 C46       -77.3657   25.2493  -72.4811 C.3       11 UNK        -0.0857 
     47 S47       -76.3406   25.7992  -71.0713 S.3       11 UNK        -0.2512 
     48 C48       -77.2877   27.1988  -70.3870 C.3       11 UNK         0.0225 
     49 N         -77.0498   23.6908  -74.4306 N.am      5 UNK        -0.4615 
     50 C         -76.3109   22.7421  -75.0258 C.2       4 UNK         0.5053 
     51 O         -75.0841   22.6779  -74.9444 O.2       4 UNK        -0.5105 
     52 CA        -77.0532   21.6882  -75.8643 C.3       4 UNK         0.0263 
     53 CB        -77.5455   20.5379  -74.9714 C.3       4 UNK        -0.1981 
     54 N         -78.1788   22.2293  -76.6268 N.am      4 UNK        -0.4224 
     55 C         -78.0788   23.1607  -77.5856 C.2       3 UNK         0.4895 
     56 O         -77.0209   23.6815  -77.9339 O.2       3 UNK        -0.5091 
     57 CA        -79.3897   23.6186  -78.2431 C.3       3 UNK         0.0250 
     58 CB        -79.7305   22.7205  -79.4429 C.3       3 UNK        -0.1996 
     59 N         -80.5307   23.6644  -77.3231 N.am      3 UNK        -0.4254 
     60 C         -80.5927   24.4082  -76.2097 C.2       2 UNK         0.5004 
     61 O         -79.6547   25.0956  -75.7935 O.2       2 UNK        -0.5226 
     62 CA        -81.9279   24.3433  -75.4474 C.3       2 UNK         0.0269 
     63 CB        -81.9822   23.1183  -74.5107 C.3       2 UNK        -0.1926 
     64 N         -82.2319   25.6005  -74.7509 N.am      2 UNK        -0.4687 
     65 C         -81.6706   26.0973  -73.6391 C.2       1 UNK         0.5165 
     66 O         -80.8783   25.4882  -72.9150 O.2       1 UNK        -0.5079 
     67 H67       -81.9004   28.1719  -69.3562 H         1 UNK         0.0900 
     68 H68       -82.7625   26.6710  -69.0123 H         1 UNK         0.0900 
     69 H69       -83.6549   28.1862  -69.1723 H         1 UNK         0.0900 
     70 H70       -81.2306   28.2421  -71.4964 H         1 UNK         0.2959 
     71 H71       -83.0234   27.7741  -73.7030 H         1 UNK         0.1079 
     72 H72       -79.9884   28.2384  -73.7760 H         1 UNK         0.0837 
     73 H73       -81.0710   28.3244  -75.1166 H         1 UNK         0.0837 
     74 H74       -80.2581   31.7929  -72.2452 H         1 UNK         0.0685 
     75 H75       -80.9560   30.4348  -71.4096 H         1 UNK         0.0685 
     76 H76       -79.5114   28.6923  -70.6691 H         1 UNK         0.1434 
     77 H77       -75.5500   28.2848  -72.2475 H         1 UNK         0.1329 
     78 H78       -78.1848   31.2824  -73.8163 H         1 UNK         0.1335 
     79 H79       -76.1311   30.5555  -75.0513 H         1 UNK         0.0680 
     80 H80       -74.9759   29.4786  -74.3146 H         1 UNK         0.0680 
     81 H81       -73.8241   29.9492  -72.1251 H         1 UNK         0.1032 
     82 H82       -73.5227   31.5209  -71.4409 H         1 UNK         0.1032 
     83 H83       -71.8500   32.0206  -73.1926 H         1 UNK         0.0461 
     84 H84       -69.5131   29.1610  -71.6986 H         1 UNK         0.3453 
     85 H85       -70.2452   29.0453  -73.2797 H         1 UNK         0.3453 
     86 H86       -72.7115   29.4923  -74.4021 H         1 UNK         0.2984 
     87 H87       -72.2673   30.0219  -77.1363 H         1 UNK         0.0554 
     88 H88       -70.2895   29.0951  -78.3665 H         1 UNK         0.0847 
     89 H89       -69.2612   29.4431  -76.9773 H         1 UNK         0.0847 
     90 H90       -70.0237   30.7553  -77.8631 H         1 UNK         0.0847 
     91 H91       -72.5547   27.8924  -76.6461 H         1 UNK         0.3141 
     92 H92       -70.6278   25.3373  -75.4799 H         1 UNK         0.0743 
     93 H93       -72.6012   26.4856  -73.4397 H         1 UNK         0.0784 
     94 H94       -72.2927   24.7602  -73.6460 H         1 UNK         0.0784 
     95 H95       -71.0036   25.8365  -73.1310 H         1 UNK         0.0784 
     96 H96       -73.5131   25.7141  -75.7422 H         1 UNK         0.3213 
     97 H97       -73.5663   25.6804  -79.2231 H         1 UNK         0.0855 
     98 H98       -74.1183   23.0727  -77.7080 H         1 UNK         0.0814 
     99 H99       -72.9859   23.2333  -79.0450 H         1 UNK         0.0814 
    100 H100      -74.6984   23.4932  -79.3197 H         1 UNK         0.0814 
    101 H101      -75.6867   24.9757  -77.5200 H         1 UNK         0.3105 
    102 H102      -76.4141   28.1936  -76.1364 H         1 UNK         0.0547 
    103 H103      -77.5070   28.1646  -78.3530 H         1 UNK         0.0837 
    104 H104      -77.8275   26.4437  -78.2119 H         1 UNK         0.0837 
    105 H105      -78.6255   27.5831  -77.1283 H         1 UNK         0.0837 
    106 H106      -77.7217   25.7302  -75.7300 H         1 UNK         0.3020 
    107 H107      -75.5372   24.4116  -73.2225 H         1 UNK         0.1245 
    108 H108      -78.0686   26.0270  -72.7877 H         1 UNK         0.0781 
    109 H109      -77.9793   24.4209  -72.1236 H         1 UNK         0.0781 
    110 H110      -78.2424   26.8126  -70.0260 H         1 UNK         0.0836 
    111 H111      -76.7601   27.5806  -69.5122 H         1 UNK         0.0836 
    112 H112      -78.0491   23.7151  -74.5820 H         1 UNK         0.3022 
    113 H113      -76.3381   21.2806  -76.5823 H         1 UNK         0.0747 
    114 H114      -77.9867   19.7359  -75.5636 H         1 UNK         0.0793 
    115 H115      -76.7201   20.1031  -74.4057 H         1 UNK         0.0793 
    116 H116      -78.2922   20.8749  -74.2511 H         1 UNK         0.0793 
    117 H117      -79.0954   21.8675  -76.4085 H         1 UNK         0.3047 
    118 H118      -79.2327   24.6319  -78.6154 H         1 UNK         0.0822 
    119 H119      -80.6006   23.0930  -79.9840 H         1 UNK         0.0807 
    120 H120      -79.9383   21.6946  -79.1361 H         1 UNK         0.0807 
    121 H121      -78.9019   22.6869  -80.1521 H         1 UNK         0.0807 
    122 H122      -81.3393   23.1200  -77.5888 H         1 UNK         0.2946 
    123 H123      -82.7219   24.2280  -76.1877 H         1 UNK         0.1144 
    124 H124      -81.9554   22.1900  -75.0824 H         1 UNK         0.0793 
    125 H125      -82.8993   23.1081  -73.9217 H         1 UNK         0.0793 
    126 H126      -81.1389   23.0903  -73.8200 H         1 UNK         0.0793 
    127 H127      -82.8568   26.2108  -75.2597 H         1 UNK         0.2896 
@<TRIPOS>BOND
     1    1    2 1    
     2    1   67 1    
     3    1   68 1    
     4    1   69 1    
     5    2    3 2    
     6    2    4 am   BACKBONE|DICT|INTERRES
     7    4    5 1    
     8    4   70 1    
     9    5    6 1    
    10    5   65 1    
    11    5   71 1    
    12    6    7 1    
    13    6   72 1    
    14    6   73 1    
    15    7    8 1    
    16    8    9 1    
    17    8   74 1    
    18    8   75 1    
    19    9   10 ar   
    20    9   14 ar   
    21   10   11 ar   
    22   10   76 1    
    23   11   12 ar   
    24   11   48 1    
    25   12   13 ar   
    26   12   77 1    
    27   13   14 ar   
    28   13   15 1    
    29   14   78 1    
    30   15   16 1    
    31   15   79 1    
    32   15   80 1    
    33   16   17 1    
    34   17   18 1    
    35   17   81 1    
    36   17   82 1    
    37   18   19 1    
    38   18   22 1    
    39   18   83 1    
    40   19   20 am   BACKBONE|DICT|INTERRES
    41   19   21 2    
    42   20   84 1    
    43   20   85 1    
    44   22   23 am   BACKBONE|DICT|INTERRES
    45   22   86 1    
    46   23   24 2    
    47   23   25 1    
    48   25   26 1    
    49   25   27 1    
    50   25   87 1    
    51   26   88 1    
    52   26   89 1    
    53   26   90 1    
    54   27   28 am   BACKBONE|DICT|INTERRES
    55   27   91 1    
    56   28   29 2    
    57   28   30 1    
    58   30   31 1    
    59   30   32 1    
    60   30   92 1    
    61   31   93 1    
    62   31   94 1    
    63   31   95 1    
    64   32   33 am   BACKBONE|DICT|INTERRES
    65   32   96 1    
    66   33   34 2    
    67   33   35 1    
    68   35   36 1    
    69   35   37 1    
    70   35   97 1    
    71   36   98 1    
    72   36   99 1    
    73   36  100 1    
    74   37   38 am   BACKBONE|DICT|INTERRES
    75   37  101 1    
    76   38   39 2    
    77   38   40 1    
    78   40   41 1    
    79   40   42 1    
    80   40  102 1    
    81   41  103 1    
    82   41  104 1    
    83   41  105 1    
    84   42   43 am   BACKBONE|DICT|INTERRES
    85   42  106 1    
    86   43   44 2    
    87   43   45 1    
    88   45   46 1    
    89   45   49 1    
    90   45  107 1    
    91   46   47 1    
    92   46  108 1    
    93   46  109 1    
    94   47   48 1    
    95   48  110 1    
    96   48  111 1    
    97   49   50 am   BACKBONE|DICT|INTERRES
    98   49  112 1    
    99   50   51 2    
   100   50   52 1    
   101   52   53 1    
   102   52   54 1    
   103   52  113 1    
   104   53  114 1    
   105   53  115 1    
   106   53  116 1    
   107   54   55 am   BACKBONE|DICT|INTERRES
   108   54  117 1    
   109   55   56 2    
   110   55   57 1    
   111   57   58 1    
   112   57   59 1    
   113   57  118 1    
   114   58  119 1    
   115   58  120 1    
   116   58  121 1    
   117   59   60 am   BACKBONE|DICT|INTERRES
   118   59  122 1    
   119   60   61 2    
   120   60   62 1    
   121   62   63 1    
   122   62   64 1    
   123   62  123 1    
   124   63  124 1    
   125   63  125 1    
   126   63  126 1    
   127   64   65 am   BACKBONE|DICT|INTERRES
   128   64  127 1    
   129   65   66 2    
@<TRIPOS>SUBSTRUCTURE
     1 UNK         1 GROUP             0       ****    0 ROOT    
