@<TRIPOS>MOLECULE
3R135
127   129    1
SMALL
USER_CHARGES


@<TRIPOS>ATOM
      1 CA        -83.2636   26.4731  -70.3399 C.3       0 UNK        -0.1998 
      2 C         -83.3536   27.0202  -71.7565 C.2       0 UNK         0.4909 
      3 O         -84.4438   27.0727  -72.3264 O.2       0 UNK        -0.5240 
      4 N         -82.2133   27.4261  -72.3290 N.am      1 UNK        -0.4739 
      5 CA        -82.1073   27.9695  -73.6903 C.3       1 UNK         0.0864 
      6 C6        -80.8030   28.7831  -73.8746 C.3       11 UNK        -0.0881 
      7 S7        -80.8171   30.3507  -72.9364 S.3       11 UNK        -0.2682 
      8 C8        -79.9317   29.9368  -71.3949 C.3       11 UNK         0.0289 
      9 C9        -78.5443   29.3561  -71.6364 C.ar      11 UNK        -0.0687 
     10 C10       -78.2111   28.1018  -71.1161 C.ar      11 UNK        -0.0823 
     11 C11       -76.9498   27.5444  -71.3518 C.ar      11 UNK        -0.0830 
     12 C12       -76.0148   28.2649  -72.1010 C.ar      11 UNK        -0.1021 
     13 C13       -76.3254   29.5295  -72.6071 C.ar      11 UNK        -0.0753 
     14 C14       -77.5920   30.0708  -72.3701 C.ar      11 UNK        -0.0933 
     15 C15       -75.2890   30.3140  -73.3970 C.3       11 UNK         0.0166 
     16 S16       -73.9966   30.9622  -72.2914 S.3       11 UNK        -0.2615 
     17 C17       -73.2769   32.3218  -73.2796 C.3       11 UNK        -0.0865 
     18 CA        -71.8761   32.0297  -73.8796 C.3       10 UNK         0.0862 
     19 C         -70.7781   31.8350  -72.7946 C.2       10 UNK         0.5551 
     20 N         -70.3249   32.9181  -72.1774 N.am      10 UNK        -0.7319 
     21 O         -70.3541   30.7225  -72.4876 O.2       10 UNK        -0.5018 
     22 N         -71.9289   30.9435  -74.8667 N.am      10 UNK        -0.4509 
     23 C         -71.0169   30.7461  -75.8264 C.2       10 UNK         0.4899 
     24 O         -70.0391   31.4757  -76.0037 O.2       10 UNK        -0.4839 
     25 CA        -71.2708   29.5523  -76.7655 C.3       9 UNK         0.0222 
     26 CB        -70.1055   29.2867  -77.7432 C.3       9 UNK        -0.1966 
     27 N         -71.6475   28.3266  -76.0535 N.am      9 UNK        -0.4218 
     28 C         -70.9033   27.6267  -75.1795 C.2       9 UNK         0.5020 
     29 O         -69.7752   27.9580  -74.8128 O.2       9 UNK        -0.5274 
     30 CA        -71.5037   26.3164  -74.6264 C.3       8 UNK         0.0270 
     31 CB        -72.0837   26.5552  -73.2228 C.3       8 UNK        -0.1976 
     32 N         -72.5388   25.7304  -75.4858 N.am      8 UNK        -0.4313 
     33 C         -72.3358   25.2893  -76.7386 C.2       8 UNK         0.5041 
     34 O         -71.2167   25.1716  -77.2396 O.2       8 UNK        -0.5577 
     35 CA        -73.5697   24.9599  -77.6065 C.3       7 UNK         0.0284 
     36 CB        -73.7229   23.4372  -77.7556 C.3       7 UNK        -0.1958 
     37 N         -74.8391   25.5226  -77.1321 N.am      7 UNK        -0.4454 
     38 C         -75.0973   26.8112  -76.8625 C.2       7 UNK         0.5089 
     39 O         -74.3034   27.7295  -77.0701 O.2       7 UNK        -0.5125 
     40 CA        -76.4311   27.1182  -76.1581 C.3       6 UNK         0.0408 
     41 CB        -77.5060   27.5104  -77.1814 C.3       6 UNK        -0.1791 
     42 N         -76.9348   26.0232  -75.3211 N.am      6 UNK        -0.4762 
     43 C         -76.2806   25.4389  -74.3036 C.2       6 UNK         0.5007 
     44 O         -75.1253   25.7150  -73.9794 O.2       6 UNK        -0.5032 
     45 CA        -77.0373   24.3197  -73.5679 C.3       5 UNK         0.0783 
     46 C46       -78.2097   24.8810  -72.7146 C.3       11 UNK        -0.0857 
     47 S47       -77.8590   24.9046  -70.9266 S.3       11 UNK        -0.2512 
     48 C48       -76.5640   26.1842  -70.7770 C.3       11 UNK         0.0225 
     49 N         -77.4960   23.3363  -74.5481 N.am      5 UNK        -0.4615 
     50 C         -76.7388   22.3553  -75.0565 C.2       4 UNK         0.5053 
     51 O         -75.5996   22.1006  -74.6671 O.2       4 UNK        -0.5105 
     52 CA        -77.3449   21.5150  -76.1965 C.3       4 UNK         0.0263 
     53 CB        -77.8998   20.1905  -75.6483 C.3       4 UNK        -0.1981 
     54 N         -78.4025   22.2082  -76.9379 N.am      4 UNK        -0.4224 
     55 C         -78.2102   23.2780  -77.7230 C.2       3 UNK         0.4895 
     56 O         -77.1081   23.7778  -77.9447 O.2       3 UNK        -0.5091 
     57 CA        -79.4721   23.9375  -78.3068 C.3       3 UNK         0.0250 
     58 CB        -79.8917   23.2400  -79.6104 C.3       3 UNK        -0.1996 
     59 N         -80.6084   23.9714  -77.3756 N.am      3 UNK        -0.4254 
     60 C         -80.5903   24.5591  -76.1709 C.2       2 UNK         0.5004 
     61 O         -79.5901   25.0939  -75.6856 O.2       2 UNK        -0.5226 
     62 CA        -81.8811   24.4829  -75.3407 C.3       2 UNK         0.0269 
     63 CB        -81.9212   23.1716  -74.5387 C.3       2 UNK        -0.1926 
     64 N         -81.9725   25.6101  -74.4107 N.am      2 UNK        -0.4687 
     65 C         -82.2133   26.8775  -74.7773 C.2       1 UNK         0.5165 
     66 O         -82.5051   27.2042  -75.9292 O.2       1 UNK        -0.5079 
     67 H67       -82.2407   26.4791  -69.9634 H         1 UNK         0.0900 
     68 H68       -83.8757   27.0731  -69.6670 H         1 UNK         0.0900 
     69 H69       -83.6296   25.4472  -70.3100 H         1 UNK         0.0900 
     70 H70       -81.3481   27.3645  -71.8137 H         1 UNK         0.2959 
     71 H71       -82.9526   28.6422  -73.8546 H         1 UNK         0.1079 
     72 H72       -80.6703   29.0593  -74.9229 H         1 UNK         0.0837 
     73 H73       -79.9281   28.1829  -73.6200 H         1 UNK         0.0837 
     74 H74       -79.8325   30.8431  -70.7962 H         1 UNK         0.0685 
     75 H75       -80.5463   29.2525  -70.8087 H         1 UNK         0.0685 
     76 H76       -78.9343   27.5540  -70.5281 H         1 UNK         0.1434 
     77 H77       -75.0330   27.8495  -72.2809 H         1 UNK         0.1329 
     78 H78       -77.8431   31.0477  -72.7602 H         1 UNK         0.1335 
     79 H79       -75.7696   31.1354  -73.9304 H         1 UNK         0.0680 
     80 H80       -74.8351   29.6723  -74.1536 H         1 UNK         0.0680 
     81 H81       -73.9639   32.5977  -74.0807 H         1 UNK         0.1032 
     82 H82       -73.2273   33.2040  -72.6388 H         1 UNK         0.1032 
     83 H83       -71.5924   32.9271  -74.4340 H         1 UNK         0.0461 
     84 H84       -70.6645   33.8371  -72.4153 H         1 UNK         0.3453 
     85 H85       -69.6213   32.8149  -71.4628 H         1 UNK         0.3453 
     86 H86       -72.6698   30.2699  -74.7496 H         1 UNK         0.2984 
     87 H87       -72.1397   29.8238  -77.3668 H         1 UNK         0.0554 
     88 H88       -69.9158   30.1580  -78.3711 H         1 UNK         0.0847 
     89 H89       -70.3281   28.4515  -78.4074 H         1 UNK         0.0847 
     90 H90       -69.1779   29.0584  -77.2173 H         1 UNK         0.0847 
     91 H91       -72.5693   27.9667  -76.2918 H         1 UNK         0.3141 
     92 H92       -70.6914   25.5913  -74.5451 H         1 UNK         0.0743 
     93 H93       -72.8957   27.2827  -73.2441 H         1 UNK         0.0784 
     94 H94       -72.4700   25.6331  -72.7880 H         1 UNK         0.0784 
     95 H95       -71.3206   26.9402  -72.5448 H         1 UNK         0.0784 
     96 H96       -73.4885   25.7518  -75.1231 H         1 UNK         0.3213 
     97 H97       -73.3825   25.3845  -78.5947 H         1 UNK         0.0855 
     98 H98       -73.9659   22.9631  -76.8040 H         1 UNK         0.0814 
     99 H99       -72.8006   22.9830  -78.1206 H         1 UNK         0.0814 
    100 H100      -74.5080   23.1838  -78.4680 H         1 UNK         0.0814 
    101 H101      -75.5988   24.8625  -77.0030 H         1 UNK         0.3105 
    102 H102      -76.2624   27.9707  -75.4974 H         1 UNK         0.0547 
    103 H103      -77.1881   28.3717  -77.7703 H         1 UNK         0.0837 
    104 H104      -77.7106   26.6969  -77.8772 H         1 UNK         0.0837 
    105 H105      -78.4431   27.7783  -76.6925 H         1 UNK         0.0837 
    106 H106      -77.8867   25.7130  -75.5126 H         1 UNK         0.3020 
    107 H107      -76.3208   23.8250  -72.9075 H         1 UNK         0.1245 
    108 H108      -79.0942   24.2534  -72.8322 H         1 UNK         0.0781 
    109 H109      -78.5341   25.8732  -73.0356 H         1 UNK         0.0781 
    110 H110      -75.6530   25.8122  -71.2481 H         1 UNK         0.0836 
    111 H111      -76.3258   26.3127  -69.7205 H         1 UNK         0.0836 
    112 H112      -78.3941   23.5283  -74.9727 H         1 UNK         0.3022 
    113 H113      -76.5379   21.2867  -76.8964 H         1 UNK         0.0747 
    114 H114      -78.2604   19.5478  -76.4517 H         1 UNK         0.0793 
    115 H115      -77.1271   19.6351  -75.1145 H         1 UNK         0.0793 
    116 H116      -78.7231   20.3542  -74.9517 H         1 UNK         0.0793 
    117 H117      -79.3449   21.8675  -76.8156 H         1 UNK         0.3047 
    118 H118      -79.2176   24.9718  -78.5447 H         1 UNK         0.0822 
    119 H119      -80.7191   23.7620  -80.0916 H         1 UNK         0.0807 
    120 H120      -80.1996   22.2079  -79.4384 H         1 UNK         0.0807 
    121 H121      -79.0668   23.2192  -80.3243 H         1 UNK         0.0807 
    122 H122      -81.4643   23.5399  -77.6947 H         1 UNK         0.2946 
    123 H123      -82.7390   24.5177  -76.0162 H         1 UNK         0.1144 
    124 H124      -82.8352   23.0966  -73.9491 H         1 UNK         0.0793 
    125 H125      -81.0750   23.0864  -73.8558 H         1 UNK         0.0793 
    126 H126      -81.8945   22.3046  -75.2000 H         1 UNK         0.0793 
    127 H127      -81.7267   25.4322  -73.4488 H         1 UNK         0.2896 
@<TRIPOS>BOND
     1    1    2 1    
     2    1   67 1    
     3    1   68 1    
     4    1   69 1    
     5    2    3 2    
     6    2    4 am   BACKBONE|DICT|INTERRES
     7    4    5 1    
     8    4   70 1    
     9    5    6 1    
    10    5   65 1    
    11    5   71 1    
    12    6    7 1    
    13    6   72 1    
    14    6   73 1    
    15    7    8 1    
    16    8    9 1    
    17    8   74 1    
    18    8   75 1    
    19    9   10 ar   
    20    9   14 ar   
    21   10   11 ar   
    22   10   76 1    
    23   11   12 ar   
    24   11   48 1    
    25   12   13 ar   
    26   12   77 1    
    27   13   14 ar   
    28   13   15 1    
    29   14   78 1    
    30   15   16 1    
    31   15   79 1    
    32   15   80 1    
    33   16   17 1    
    34   17   18 1    
    35   17   81 1    
    36   17   82 1    
    37   18   19 1    
    38   18   22 1    
    39   18   83 1    
    40   19   20 am   BACKBONE|DICT|INTERRES
    41   19   21 2    
    42   20   84 1    
    43   20   85 1    
    44   22   23 am   BACKBONE|DICT|INTERRES
    45   22   86 1    
    46   23   24 2    
    47   23   25 1    
    48   25   26 1    
    49   25   27 1    
    50   25   87 1    
    51   26   88 1    
    52   26   89 1    
    53   26   90 1    
    54   27   28 am   BACKBONE|DICT|INTERRES
    55   27   91 1    
    56   28   29 2    
    57   28   30 1    
    58   30   31 1    
    59   30   32 1    
    60   30   92 1    
    61   31   93 1    
    62   31   94 1    
    63   31   95 1    
    64   32   33 am   BACKBONE|DICT|INTERRES
    65   32   96 1    
    66   33   34 2    
    67   33   35 1    
    68   35   36 1    
    69   35   37 1    
    70   35   97 1    
    71   36   98 1    
    72   36   99 1    
    73   36  100 1    
    74   37   38 am   BACKBONE|DICT|INTERRES
    75   37  101 1    
    76   38   39 2    
    77   38   40 1    
    78   40   41 1    
    79   40   42 1    
    80   40  102 1    
    81   41  103 1    
    82   41  104 1    
    83   41  105 1    
    84   42   43 am   BACKBONE|DICT|INTERRES
    85   42  106 1    
    86   43   44 2    
    87   43   45 1    
    88   45   46 1    
    89   45   49 1    
    90   45  107 1    
    91   46   47 1    
    92   46  108 1    
    93   46  109 1    
    94   47   48 1    
    95   48  110 1    
    96   48  111 1    
    97   49   50 am   BACKBONE|DICT|INTERRES
    98   49  112 1    
    99   50   51 2    
   100   50   52 1    
   101   52   53 1    
   102   52   54 1    
   103   52  113 1    
   104   53  114 1    
   105   53  115 1    
   106   53  116 1    
   107   54   55 am   BACKBONE|DICT|INTERRES
   108   54  117 1    
   109   55   56 2    
   110   55   57 1    
   111   57   58 1    
   112   57   59 1    
   113   57  118 1    
   114   58  119 1    
   115   58  120 1    
   116   58  121 1    
   117   59   60 am   BACKBONE|DICT|INTERRES
   118   59  122 1    
   119   60   61 2    
   120   60   62 1    
   121   62   63 1    
   122   62   64 1    
   123   62  123 1    
   124   63  124 1    
   125   63  125 1    
   126   63  126 1    
   127   64   65 am   BACKBONE|DICT|INTERRES
   128   64  127 1    
   129   65   66 2    
@<TRIPOS>SUBSTRUCTURE
     1 UNK         1 GROUP             0       ****    0 ROOT    
