@<TRIPOS>MOLECULE
3R135
127   129    1
SMALL
USER_CHARGES


@<TRIPOS>ATOM
      1 CA        -76.4413   22.8044  -74.9496 C.3       0 UNK        -0.1998 
      2 C         -77.6184   22.8557  -73.9913 C.2       0 UNK         0.4909 
      3 O         -78.3370   21.8652  -73.8527 O.2       0 UNK        -0.5240 
      4 N         -77.8167   24.0018  -73.3260 N.am      1 UNK        -0.4739 
      5 CA        -78.8920   24.2568  -72.3596 C.3       1 UNK         0.0864 
      6 C6        -78.7754   25.6603  -71.7228 C.3       11 UNK        -0.0881 
      7 S7        -77.1923   25.9224  -70.8574 S.3       11 UNK        -0.2682 
      8 C8        -77.4476   27.5899  -70.1707 C.3       11 UNK         0.0289 
      9 C9        -77.5520   28.6422  -71.2653 C.ar      11 UNK        -0.0687 
     10 C10       -78.8044   29.0434  -71.7393 C.ar      11 UNK        -0.0823 
     11 C11       -78.9040   29.9786  -72.7710 C.ar      11 UNK        -0.0830 
     12 C12       -77.7396   30.5471  -73.2965 C.ar      11 UNK        -0.1021 
     13 C13       -76.4783   30.1717  -72.8241 C.ar      11 UNK        -0.0753 
     14 C14       -76.3953   29.2061  -71.8114 C.ar      11 UNK        -0.0933 
     15 C15       -75.2423   30.8106  -73.4599 C.3       11 UNK         0.0166 
     16 S16       -73.7618   30.8451  -72.3940 S.3       11 UNK        -0.2615 
     17 C17       -72.7186   32.0369  -73.3046 C.3       11 UNK        -0.0865 
     18 CA        -71.2074   31.9289  -72.9728 C.3       10 UNK         0.0862 
     19 C         -70.8892   32.3815  -71.5151 C.2       10 UNK         0.5551 
     20 N         -70.3728   31.5195  -70.6474 N.am      10 UNK        -0.7319 
     21 O         -71.1048   33.5419  -71.1733 O.2       10 UNK        -0.5018 
     22 N         -70.6623   30.6216  -73.3742 N.am      10 UNK        -0.4509 
     23 C         -69.3617   30.3529  -73.5492 C.2       10 UNK         0.4899 
     24 O         -68.4598   31.1756  -73.3882 O.2       10 UNK        -0.4839 
     25 CA        -69.0024   28.9238  -73.9898 C.3       9 UNK         0.0222 
     26 CB        -68.8472   28.0073  -72.7654 C.3       9 UNK        -0.1966 
     27 N         -69.9679   28.3313  -74.9199 N.am      9 UNK        -0.4218 
     28 C         -70.2340   28.7657  -76.1578 C.2       9 UNK         0.5020 
     29 O         -69.6981   29.7531  -76.6628 O.2       9 UNK        -0.5274 
     30 CA        -71.2603   27.9729  -76.9920 C.3       8 UNK         0.0270 
     31 CB        -70.5645   26.8472  -77.7820 C.3       8 UNK        -0.1976 
     32 N         -72.4303   27.4560  -76.2623 N.am      8 UNK        -0.4313 
     33 C         -72.4886   26.5440  -75.2795 C.2       8 UNK         0.5041 
     34 O         -71.4987   26.0351  -74.7523 O.2       8 UNK        -0.5577 
     35 CA        -73.8873   26.1407  -74.7842 C.3       7 UNK         0.0284 
     36 CB        -74.2594   26.9339  -73.5229 C.3       7 UNK        -0.1958 
     37 N         -74.9345   26.3210  -75.7942 N.am      7 UNK        -0.4454 
     38 C         -75.1132   25.5425  -76.8691 C.2       7 UNK         0.5089 
     39 O         -74.4069   24.5647  -77.1178 O.2       7 UNK        -0.5125 
     40 CA        -76.2840   25.9109  -77.8073 C.3       6 UNK         0.0408 
     41 CB        -76.5236   24.8455  -78.8924 C.3       6 UNK        -0.1791 
     42 N         -77.5460   26.1603  -77.0967 N.am      6 UNK        -0.4762 
     43 C         -77.8440   27.2774  -76.4126 C.2       6 UNK         0.5007 
     44 O         -77.0265   28.1866  -76.2558 O.2       6 UNK        -0.5032 
     45 CA        -79.2426   27.3880  -75.7563 C.3       5 UNK         0.0783 
     46 C46       -79.7656   28.8536  -75.6798 C.3       11 UNK        -0.0857 
     47 S47       -81.0052   29.0507  -74.3544 S.3       11 UNK        -0.2512 
     48 C48       -80.2686   30.3677  -73.3256 C.3       11 UNK         0.0225 
     49 N         -80.2318   26.4584  -76.3248 N.am      5 UNK        -0.4615 
     50 C         -80.7043   26.4839  -77.5809 C.2       4 UNK         0.5053 
     51 O         -80.3458   27.3097  -78.4226 O.2       4 UNK        -0.5105 
     52 CA        -81.7455   25.4144  -77.9732 C.3       4 UNK         0.0263 
     53 CB        -81.8536   25.2369  -79.5029 C.3       4 UNK        -0.1981 
     54 N         -81.5638   24.1019  -77.3416 N.am      4 UNK        -0.4224 
     55 C         -80.4683   23.3290  -77.3357 C.2       3 UNK         0.4895 
     56 O         -79.3633   23.6929  -77.7409 O.2       3 UNK        -0.5091 
     57 CA        -80.6555   21.9141  -76.7528 C.3       3 UNK         0.0250 
     58 CB        -79.4361   21.0044  -76.9893 C.3       3 UNK        -0.1996 
     59 N         -80.9529   21.9762  -75.3208 N.am      3 UNK        -0.4254 
     60 C         -82.1468   22.3060  -74.8036 C.2       2 UNK         0.5004 
     61 O         -83.1579   22.4712  -75.4883 O.2       2 UNK        -0.5226 
     62 CA        -82.2262   22.5526  -73.2854 C.3       2 UNK         0.0269 
     63 CB        -82.7373   21.2963  -72.5624 C.3       2 UNK        -0.1926 
     64 N         -80.9559   22.9737  -72.6857 N.am      2 UNK        -0.4687 
     65 C         -80.2737   24.0788  -73.0197 C.2       1 UNK         0.5165 
     66 O         -80.6649   24.9067  -73.8467 O.2       1 UNK        -0.5079 
     67 H67       -76.0139   21.8023  -74.9741 H         1 UNK         0.0900 
     68 H68       -75.6548   23.4950  -74.6498 H         1 UNK         0.0900 
     69 H69       -76.7657   23.0619  -75.9575 H         1 UNK         0.0900 
     70 H70       -77.1800   24.7720  -73.4662 H         1 UNK         0.2959 
     71 H71       -78.7926   23.5182  -71.5611 H         1 UNK         0.1079 
     72 H72       -78.8801   26.4273  -72.4899 H         1 UNK         0.0837 
     73 H73       -79.5851   25.8238  -71.0087 H         1 UNK         0.0837 
     74 H74       -78.3427   27.5942  -69.5468 H         1 UNK         0.0685 
     75 H75       -76.6142   27.8299  -69.5088 H         1 UNK         0.0685 
     76 H76       -79.7033   28.6048  -71.3277 H         1 UNK         0.1434 
     77 H77       -77.8141   31.2760  -74.0922 H         1 UNK         0.1329 
     78 H78       -75.4323   28.8795  -71.4455 H         1 UNK         0.1335 
     79 H79       -75.4778   31.8380  -73.7428 H         1 UNK         0.0680 
     80 H80       -75.0063   30.2798  -74.3831 H         1 UNK         0.0680 
     81 H81       -73.0832   33.0457  -73.1007 H         1 UNK         0.1032 
     82 H82       -72.8624   31.8856  -74.3757 H         1 UNK         0.1032 
     83 H83       -70.7070   32.6654  -73.6050 H         1 UNK         0.0461 
     84 H84       -70.1969   30.5672  -70.9224 H         1 UNK         0.3453 
     85 H85       -70.1661   31.8238  -69.7093 H         1 UNK         0.3453 
     86 H86       -71.3356   29.8814  -73.5037 H         1 UNK         0.2984 
     87 H87       -68.0397   28.9706  -74.5030 H         1 UNK         0.0554 
     88 H88       -68.1203   28.4144  -72.0610 H         1 UNK         0.0847 
     89 H89       -68.4956   27.0167  -73.0544 H         1 UNK         0.0847 
     90 H90       -69.7893   27.8839  -72.2296 H         1 UNK         0.0847 
     91 H91       -70.4398   27.4744  -74.6302 H         1 UNK         0.3141 
     92 H92       -71.6651   28.6763  -77.7216 H         1 UNK         0.0743 
     93 H93       -69.7574   27.2448  -78.3989 H         1 UNK         0.0784 
     94 H94       -70.1280   26.0964  -77.1224 H         1 UNK         0.0784 
     95 H95       -71.2628   26.3411  -78.4487 H         1 UNK         0.0784 
     96 H96       -73.3165   27.8283  -76.5737 H         1 UNK         0.3213 
     97 H97       -73.8422   25.0822  -74.5207 H         1 UNK         0.0855 
     98 H98       -73.5248   26.7796  -72.7313 H         1 UNK         0.0814 
     99 H99       -75.2277   26.6258  -73.1293 H         1 UNK         0.0814 
    100 H100      -74.3038   28.0043  -73.7208 H         1 UNK         0.0814 
    101 H101      -75.5640   27.1132  -75.6900 H         1 UNK         0.3105 
    102 H102      -75.9962   26.8318  -78.3184 H         1 UNK         0.0547 
    103 H103      -75.6378   24.7128  -79.5149 H         1 UNK         0.0837 
    104 H104      -76.7641   23.8747  -78.4577 H         1 UNK         0.0837 
    105 H105      -77.3436   25.1274  -79.5532 H         1 UNK         0.0837 
    106 H106      -78.2556   25.4390  -77.1824 H         1 UNK         0.3020 
    107 H107      -79.0737   27.0499  -74.7339 H         1 UNK         0.1245 
    108 H108      -80.2113   29.1689  -76.6233 H         1 UNK         0.0781 
    109 H109      -78.9580   29.5626  -75.5060 H         1 UNK         0.0781 
    110 H110      -80.9447   30.5896  -72.4987 H         1 UNK         0.0836 
    111 H111      -80.2002   31.2838  -73.9146 H         1 UNK         0.0836 
    112 H112      -80.5744   25.7530  -75.6788 H         1 UNK         0.3022 
    113 H113      -82.7050   25.7910  -77.6159 H         1 UNK         0.0747 
    114 H114      -82.1231   26.1738  -79.9923 H         1 UNK         0.0793 
    115 H115      -80.9095   24.9020  -79.9346 H         1 UNK         0.0793 
    116 H116      -82.6198   24.5074  -79.7654 H         1 UNK         0.0793 
    117 H117      -82.3890   23.7113  -76.8959 H         1 UNK         0.3047 
    118 H118      -81.5033   21.4590  -77.2698 H         1 UNK         0.0822 
    119 H119      -79.2300   20.9016  -78.0554 H         1 UNK         0.0807 
    120 H120      -79.6052   20.0030  -76.5932 H         1 UNK         0.0807 
    121 H121      -78.5347   21.3997  -76.5236 H         1 UNK         0.0807 
    122 H122      -80.1581   21.8919  -74.6929 H         1 UNK         0.2946 
    123 H123      -82.9471   23.3585  -73.1306 H         1 UNK         0.1144 
    124 H124      -82.8886   21.4832  -71.4991 H         1 UNK         0.0793 
    125 H125      -82.0420   20.4618  -72.6628 H         1 UNK         0.0793 
    126 H126      -83.6957   20.9732  -72.9717 H         1 UNK         0.0793 
    127 H127      -80.5350   22.3269  -72.0335 H         1 UNK         0.2896 
@<TRIPOS>BOND
     1    1    2 1    
     2    1   67 1    
     3    1   68 1    
     4    1   69 1    
     5    2    3 2    
     6    2    4 am   BACKBONE|DICT|INTERRES
     7    4    5 1    
     8    4   70 1    
     9    5    6 1    
    10    5   65 1    
    11    5   71 1    
    12    6    7 1    
    13    6   72 1    
    14    6   73 1    
    15    7    8 1    
    16    8    9 1    
    17    8   74 1    
    18    8   75 1    
    19    9   10 ar   
    20    9   14 ar   
    21   10   11 ar   
    22   10   76 1    
    23   11   12 ar   
    24   11   48 1    
    25   12   13 ar   
    26   12   77 1    
    27   13   14 ar   
    28   13   15 1    
    29   14   78 1    
    30   15   16 1    
    31   15   79 1    
    32   15   80 1    
    33   16   17 1    
    34   17   18 1    
    35   17   81 1    
    36   17   82 1    
    37   18   19 1    
    38   18   22 1    
    39   18   83 1    
    40   19   20 am   BACKBONE|DICT|INTERRES
    41   19   21 2    
    42   20   84 1    
    43   20   85 1    
    44   22   23 am   BACKBONE|DICT|INTERRES
    45   22   86 1    
    46   23   24 2    
    47   23   25 1    
    48   25   26 1    
    49   25   27 1    
    50   25   87 1    
    51   26   88 1    
    52   26   89 1    
    53   26   90 1    
    54   27   28 am   BACKBONE|DICT|INTERRES
    55   27   91 1    
    56   28   29 2    
    57   28   30 1    
    58   30   31 1    
    59   30   32 1    
    60   30   92 1    
    61   31   93 1    
    62   31   94 1    
    63   31   95 1    
    64   32   33 am   BACKBONE|DICT|INTERRES
    65   32   96 1    
    66   33   34 2    
    67   33   35 1    
    68   35   36 1    
    69   35   37 1    
    70   35   97 1    
    71   36   98 1    
    72   36   99 1    
    73   36  100 1    
    74   37   38 am   BACKBONE|DICT|INTERRES
    75   37  101 1    
    76   38   39 2    
    77   38   40 1    
    78   40   41 1    
    79   40   42 1    
    80   40  102 1    
    81   41  103 1    
    82   41  104 1    
    83   41  105 1    
    84   42   43 am   BACKBONE|DICT|INTERRES
    85   42  106 1    
    86   43   44 2    
    87   43   45 1    
    88   45   46 1    
    89   45   49 1    
    90   45  107 1    
    91   46   47 1    
    92   46  108 1    
    93   46  109 1    
    94   47   48 1    
    95   48  110 1    
    96   48  111 1    
    97   49   50 am   BACKBONE|DICT|INTERRES
    98   49  112 1    
    99   50   51 2    
   100   50   52 1    
   101   52   53 1    
   102   52   54 1    
   103   52  113 1    
   104   53  114 1    
   105   53  115 1    
   106   53  116 1    
   107   54   55 am   BACKBONE|DICT|INTERRES
   108   54  117 1    
   109   55   56 2    
   110   55   57 1    
   111   57   58 1    
   112   57   59 1    
   113   57  118 1    
   114   58  119 1    
   115   58  120 1    
   116   58  121 1    
   117   59   60 am   BACKBONE|DICT|INTERRES
   118   59  122 1    
   119   60   61 2    
   120   60   62 1    
   121   62   63 1    
   122   62   64 1    
   123   62  123 1    
   124   63  124 1    
   125   63  125 1    
   126   63  126 1    
   127   64   65 am   BACKBONE|DICT|INTERRES
   128   64  127 1    
   129   65   66 2    
@<TRIPOS>SUBSTRUCTURE
     1 UNK         1 GROUP             0       ****    0 ROOT    
