@<TRIPOS>MOLECULE
3R135
127   129    1
SMALL
USER_CHARGES


@<TRIPOS>ATOM
      1 CA        -75.9141   22.3601  -76.0740 C.3       0 UNK        -0.1998 
      2 C         -77.1778   22.0996  -75.2676 C.2       0 UNK         0.4909 
      3 O         -77.7852   21.0369  -75.4035 O.2       0 UNK        -0.5240 
      4 N         -77.5735   23.0626  -74.4261 N.am      1 UNK        -0.4739 
      5 CA        -78.8065   23.0313  -73.6317 C.3       1 UNK         0.0864 
      6 C6        -78.7927   24.1054  -72.5171 C.3       11 UNK        -0.0881 
      7 S7        -77.4421   23.8251  -71.3262 S.3       11 UNK        -0.2682 
      8 C8        -77.7489   25.1488  -70.1175 C.3       11 UNK         0.0289 
      9 C9        -77.4305   26.5260  -70.6816 C.ar      11 UNK        -0.0687 
     10 C10       -78.4612   27.4060  -71.0246 C.ar      11 UNK        -0.0823 
     11 C11       -78.1700   28.6858  -71.5060 C.ar      11 UNK        -0.0830 
     12 C12       -76.8352   29.0835  -71.6424 C.ar      11 UNK        -0.1021 
     13 C13       -75.7958   28.2081  -71.3132 C.ar      11 UNK        -0.0753 
     14 C14       -76.1011   26.9314  -70.8318 C.ar      11 UNK        -0.0933 
     15 C15       -74.3446   28.6477  -71.4460 C.3       11 UNK         0.0166 
     16 S16       -73.8099   28.6951  -73.1847 S.3       11 UNK        -0.2615 
     17 C17       -73.6576   30.4964  -73.4601 C.3       11 UNK        -0.0865 
     18 CA        -73.1313   30.8702  -74.8737 C.3       10 UNK         0.0862 
     19 C         -73.0333   32.4134  -75.0506 C.2       10 UNK         0.5551 
     20 N         -71.8743   32.9746  -75.3735 N.am      10 UNK        -0.7319 
     21 O         -74.0291   33.1154  -74.8940 O.2       10 UNK        -0.5018 
     22 N         -71.9030   30.1337  -75.2047 N.am      10 UNK        -0.4509 
     23 C         -71.4802   29.8165  -76.4322 C.2       10 UNK         0.4899 
     24 O         -72.0370   30.1855  -77.4656 O.2       10 UNK        -0.4839 
     25 CA        -70.2532   28.8892  -76.5334 C.3       9 UNK         0.0222 
     26 CB        -68.9431   29.6992  -76.5890 C.3       9 UNK        -0.1966 
     27 N         -70.2095   27.8352  -75.5045 N.am      9 UNK        -0.4218 
     28 C         -70.0178   27.9567  -74.1814 C.2       9 UNK         0.5020 
     29 O         -69.7927   29.0272  -73.6144 O.2       9 UNK        -0.5274 
     30 CA        -70.2196   26.6791  -73.3579 C.3       8 UNK         0.0270 
     31 CB        -70.0730   26.9056  -71.8408 C.3       8 UNK        -0.1976 
     32 N         -71.5589   26.1699  -73.6419 N.am      8 UNK        -0.4313 
     33 C         -71.8603   24.9088  -73.9651 C.2       8 UNK         0.5041 
     34 O         -71.0383   23.9928  -74.0093 O.2       8 UNK        -0.5577 
     35 CA        -73.3313   24.6208  -74.3104 C.3       7 UNK         0.0284 
     36 CB        -74.1011   24.2168  -73.0439 C.3       7 UNK        -0.1958 
     37 N         -74.0213   25.7411  -74.9640 N.am      7 UNK        -0.4454 
     38 C         -73.7343   26.2116  -76.1881 C.2       7 UNK         0.5089 
     39 O         -72.8248   25.7651  -76.8878 O.2       7 UNK        -0.5125 
     40 CA        -74.6075   27.3632  -76.7196 C.3       6 UNK         0.0408 
     41 CB        -74.7462   27.3455  -78.2534 C.3       6 UNK        -0.1791 
     42 N         -75.9379   27.3692  -76.1031 N.am      6 UNK        -0.4762 
     43 C         -76.6169   28.4738  -75.7643 C.2       6 UNK         0.5007 
     44 O         -76.2196   29.6181  -75.9860 O.2       6 UNK        -0.5032 
     45 CA        -77.9777   28.2455  -75.0752 C.3       5 UNK         0.0783 
     46 C46       -78.6474   29.5660  -74.6061 C.3       11 UNK        -0.0857 
     47 S47       -80.0453   29.2417  -73.4794 S.3       11 UNK        -0.2512 
     48 C48       -79.3013   29.6401  -71.8644 C.3       11 UNK         0.0225 
     49 N         -78.8764   27.4170  -75.8904 N.am      5 UNK        -0.4615 
     50 C         -79.3363   27.6962  -77.1211 C.2       4 UNK         0.5053 
     51 O         -78.9761   28.6561  -77.8021 O.2       4 UNK        -0.5105 
     52 CA        -80.4169   26.7539  -77.6742 C.3       4 UNK         0.0263 
     53 CB        -79.7766   25.5753  -78.4261 C.3       4 UNK        -0.1981 
     54 N         -81.2857   26.2528  -76.6054 N.am      4 UNK        -0.4224 
     55 C         -82.2838   26.9584  -76.0484 C.2       3 UNK         0.4895 
     56 O         -82.6333   28.0660  -76.4600 O.2       3 UNK        -0.5091 
     57 CA        -82.9966   26.3640  -74.8113 C.3       3 UNK         0.0250 
     58 CB        -84.5164   26.6361  -74.8218 C.3       3 UNK        -0.1996 
     59 N         -82.7141   24.9428  -74.5658 N.am      3 UNK        -0.4254 
     60 C         -83.0183   23.8980  -75.3514 C.2       2 UNK         0.5004 
     61 O         -83.6959   23.9860  -76.3765 O.2       2 UNK        -0.5226 
     62 CA        -82.4278   22.5306  -74.9386 C.3       2 UNK         0.0269 
     63 CB        -82.2496   21.5906  -76.1504 C.3       2 UNK        -0.1926 
     64 N         -81.1650   22.5997  -74.1784 N.am      2 UNK        -0.4687 
     65 C         -80.0325   23.2213  -74.5451 C.2       1 UNK         0.5165 
     66 O         -79.9430   23.9610  -75.5280 O.2       1 UNK        -0.5079 
     67 H67       -75.0858   21.7760  -75.6739 H         1 UNK         0.0900 
     68 H68       -75.6331   23.4125  -76.0585 H         1 UNK         0.0900 
     69 H69       -76.0651   22.0708  -77.1137 H         1 UNK         0.0900 
     70 H70       -77.0369   23.9119  -74.3522 H         1 UNK         0.2959 
     71 H71       -78.8812   22.0453  -73.1669 H         1 UNK         0.1079 
     72 H72       -79.7339   24.1005  -71.9637 H         1 UNK         0.0837 
     73 H73       -78.6880   25.1052  -72.9432 H         1 UNK         0.0837 
     74 H74       -78.7834   25.0959  -69.7744 H         1 UNK         0.0685 
     75 H75       -77.1282   24.9703  -69.2383 H         1 UNK         0.0685 
     76 H76       -79.4922   27.0993  -70.9118 H         1 UNK         0.1434 
     77 H77       -76.6015   30.0744  -72.0062 H         1 UNK         0.1329 
     78 H78       -75.3051   26.2519  -70.5603 H         1 UNK         0.1335 
     79 H79       -73.6886   27.9646  -70.9040 H         1 UNK         0.0680 
     80 H80       -74.2142   29.6239  -70.9769 H         1 UNK         0.0680 
     81 H81       -72.9955   30.9067  -72.6952 H         1 UNK         0.1032 
     82 H82       -74.6374   30.9482  -73.2945 H         1 UNK         0.1032 
     83 H83       -73.8868   30.5538  -75.5915 H         1 UNK         0.0461 
     84 H84       -71.8213   33.9745  -75.4882 H         1 UNK         0.3453 
     85 H85       -71.0552   32.4038  -75.5062 H         1 UNK         0.3453 
     86 H86       -71.3361   29.8254  -74.4205 H         1 UNK         0.2984 
     87 H87       -70.3467   28.3587  -77.4824 H         1 UNK         0.0554 
     88 H88       -68.9518   30.3910  -77.4323 H         1 UNK         0.0847 
     89 H89       -68.0787   29.0473  -76.7147 H         1 UNK         0.0847 
     90 H90       -68.7869   30.2933  -75.6883 H         1 UNK         0.0847 
     91 H91       -70.4436   26.9111  -75.8441 H         1 UNK         0.3141 
     92 H92       -69.4563   25.9673  -73.6793 H         1 UNK         0.0743 
     93 H93       -70.8068   27.6212  -71.4671 H         1 UNK         0.0784 
     94 H94       -70.2031   25.9747  -71.2888 H         1 UNK         0.0784 
     95 H95       -69.0827   27.2923  -71.5967 H         1 UNK         0.0784 
     96 H96       -72.3026   26.8578  -73.6422 H         1 UNK         0.3213 
     97 H97       -73.3388   23.7749  -75.0010 H         1 UNK         0.0855 
     98 H98       -73.6157   23.3788  -72.5415 H         1 UNK         0.0814 
     99 H99       -75.1163   23.9024  -73.2770 H         1 UNK         0.0814 
    100 H100      -74.1581   25.0361  -72.3269 H         1 UNK         0.0814 
    101 H101      -74.7309   26.2176  -74.4264 H         1 UNK         0.3105 
    102 H102      -74.0801   28.2761  -76.4400 H         1 UNK         0.0547 
    103 H103      -73.7710   27.4119  -78.7377 H         1 UNK         0.0837 
    104 H104      -75.2270   26.4314  -78.6027 H         1 UNK         0.0837 
    105 H105      -75.3361   28.1915  -78.6064 H         1 UNK         0.0837 
    106 H106      -76.3647   26.4665  -75.9493 H         1 UNK         0.3020 
    107 H107      -77.7473   27.6652  -74.1800 H         1 UNK         0.1245 
    108 H108      -79.0120   30.1406  -75.4590 H         1 UNK         0.0781 
    109 H109      -77.9306   30.2139  -74.0992 H         1 UNK         0.0781 
    110 H110      -80.0759   29.5893  -71.0978 H         1 UNK         0.0836 
    111 H111      -78.9505   30.6734  -71.8701 H         1 UNK         0.0836 
    112 H112      -79.2433   26.5926  -75.4381 H         1 UNK         0.3022 
    113 H113      -81.0254   27.3170  -78.3852 H         1 UNK         0.0747 
    114 H114      -79.1964   25.9301  -79.2788 H         1 UNK         0.0793 
    115 H115      -79.0997   25.0036  -77.7905 H         1 UNK         0.0793 
    116 H116      -80.5336   24.8911  -78.8098 H         1 UNK         0.0793 
    117 H117      -81.0358   25.3487  -76.2120 H         1 UNK         0.3047 
    118 H118      -82.5789   26.8980  -73.9562 H         1 UNK         0.0822 
    119 H119      -85.0005   26.2048  -75.6983 H         1 UNK         0.0807 
    120 H120      -84.7226   27.7071  -74.8342 H         1 UNK         0.0807 
    121 H121      -84.9996   26.2265  -73.9348 H         1 UNK         0.0807 
    122 H122      -82.1542   24.7493  -73.7475 H         1 UNK         0.2946 
    123 H123      -83.1671   22.0786  -74.2750 H         1 UNK         0.1144 
    124 H124      -81.8605   20.6190  -75.8459 H         1 UNK         0.0793 
    125 H125      -81.5626   22.0103  -76.8865 H         1 UNK         0.0793 
    126 H126      -83.1995   21.4109  -76.6557 H         1 UNK         0.0793 
    127 H127      -81.1512   22.0555  -73.3259 H         1 UNK         0.2896 
@<TRIPOS>BOND
     1    1    2 1    
     2    1   67 1    
     3    1   68 1    
     4    1   69 1    
     5    2    3 2    
     6    2    4 am   BACKBONE|DICT|INTERRES
     7    4    5 1    
     8    4   70 1    
     9    5    6 1    
    10    5   65 1    
    11    5   71 1    
    12    6    7 1    
    13    6   72 1    
    14    6   73 1    
    15    7    8 1    
    16    8    9 1    
    17    8   74 1    
    18    8   75 1    
    19    9   10 ar   
    20    9   14 ar   
    21   10   11 ar   
    22   10   76 1    
    23   11   12 ar   
    24   11   48 1    
    25   12   13 ar   
    26   12   77 1    
    27   13   14 ar   
    28   13   15 1    
    29   14   78 1    
    30   15   16 1    
    31   15   79 1    
    32   15   80 1    
    33   16   17 1    
    34   17   18 1    
    35   17   81 1    
    36   17   82 1    
    37   18   19 1    
    38   18   22 1    
    39   18   83 1    
    40   19   20 am   BACKBONE|DICT|INTERRES
    41   19   21 2    
    42   20   84 1    
    43   20   85 1    
    44   22   23 am   BACKBONE|DICT|INTERRES
    45   22   86 1    
    46   23   24 2    
    47   23   25 1    
    48   25   26 1    
    49   25   27 1    
    50   25   87 1    
    51   26   88 1    
    52   26   89 1    
    53   26   90 1    
    54   27   28 am   BACKBONE|DICT|INTERRES
    55   27   91 1    
    56   28   29 2    
    57   28   30 1    
    58   30   31 1    
    59   30   32 1    
    60   30   92 1    
    61   31   93 1    
    62   31   94 1    
    63   31   95 1    
    64   32   33 am   BACKBONE|DICT|INTERRES
    65   32   96 1    
    66   33   34 2    
    67   33   35 1    
    68   35   36 1    
    69   35   37 1    
    70   35   97 1    
    71   36   98 1    
    72   36   99 1    
    73   36  100 1    
    74   37   38 am   BACKBONE|DICT|INTERRES
    75   37  101 1    
    76   38   39 2    
    77   38   40 1    
    78   40   41 1    
    79   40   42 1    
    80   40  102 1    
    81   41  103 1    
    82   41  104 1    
    83   41  105 1    
    84   42   43 am   BACKBONE|DICT|INTERRES
    85   42  106 1    
    86   43   44 2    
    87   43   45 1    
    88   45   46 1    
    89   45   49 1    
    90   45  107 1    
    91   46   47 1    
    92   46  108 1    
    93   46  109 1    
    94   47   48 1    
    95   48  110 1    
    96   48  111 1    
    97   49   50 am   BACKBONE|DICT|INTERRES
    98   49  112 1    
    99   50   51 2    
   100   50   52 1    
   101   52   53 1    
   102   52   54 1    
   103   52  113 1    
   104   53  114 1    
   105   53  115 1    
   106   53  116 1    
   107   54   55 am   BACKBONE|DICT|INTERRES
   108   54  117 1    
   109   55   56 2    
   110   55   57 1    
   111   57   58 1    
   112   57   59 1    
   113   57  118 1    
   114   58  119 1    
   115   58  120 1    
   116   58  121 1    
   117   59   60 am   BACKBONE|DICT|INTERRES
   118   59  122 1    
   119   60   61 2    
   120   60   62 1    
   121   62   63 1    
   122   62   64 1    
   123   62  123 1    
   124   63  124 1    
   125   63  125 1    
   126   63  126 1    
   127   64   65 am   BACKBONE|DICT|INTERRES
   128   64  127 1    
   129   65   66 2    
@<TRIPOS>SUBSTRUCTURE
     1 UNK         1 GROUP             0       ****    0 ROOT    
