@<TRIPOS>MOLECULE
3R135
127   129    1
SMALL
USER_CHARGES


@<TRIPOS>ATOM
      1 CA        -81.2387   28.0488  -76.4297 C.3       0 UNK        -0.1998 
      2 C         -80.5481   27.4003  -75.2413 C.2       0 UNK         0.4909 
      3 O         -79.4807   26.8081  -75.4089 O.2       0 UNK        -0.5240 
      4 N         -81.1481   27.5040  -74.0465 N.am      1 UNK        -0.4739 
      5 CA        -80.6171   26.9860  -72.7767 C.3       1 UNK         0.0864 
      6 C6        -81.4879   27.3712  -71.5513 C.3       11 UNK        -0.0881 
      7 S7        -81.9872   29.1262  -71.5123 S.3       11 UNK        -0.2682 
      8 C8        -80.8232   29.8413  -70.3042 C.3       11 UNK         0.0289 
      9 C9        -79.4263   30.0768  -70.8700 C.ar      11 UNK        -0.0687 
     10 C10       -79.2530   30.6992  -72.1116 C.ar      11 UNK        -0.0823 
     11 C11       -77.9732   30.9630  -72.6077 C.ar      11 UNK        -0.0830 
     12 C12       -76.8578   30.6220  -71.8371 C.ar      11 UNK        -0.1021 
     13 C13       -77.0137   29.9876  -70.6016 C.ar      11 UNK        -0.0753 
     14 C14       -78.2996   29.7194  -70.1222 C.ar      11 UNK        -0.0933 
     15 C15       -75.7895   29.5996  -69.7839 C.3       11 UNK         0.0166 
     16 S16       -75.4828   27.8040  -69.8085 S.3       11 UNK        -0.2615 
     17 C17       -75.0923   27.5140  -71.5662 C.3       11 UNK        -0.0865 
     18 CA        -73.5730   27.5664  -71.8744 C.3       10 UNK         0.0862 
     19 C         -72.8762   26.2016  -71.6219 C.2       10 UNK         0.5551 
     20 N         -72.7315   25.3401  -72.6240 N.am      10 UNK        -0.7319 
     21 O         -72.4385   25.9287  -70.5074 O.2       10 UNK        -0.5018 
     22 N         -73.3316   28.0611  -73.2339 N.am      10 UNK        -0.4509 
     23 C         -72.9678   29.3050  -73.5648 C.2       10 UNK         0.4899 
     24 O         -72.8661   30.2261  -72.7535 O.2       10 UNK        -0.4839 
     25 CA        -72.6906   29.5708  -75.0619 C.3       9 UNK         0.0222 
     26 CB        -71.6439   30.6849  -75.2787 C.3       9 UNK        -0.1966 
     27 N         -72.3474   28.3648  -75.8394 N.am      9 UNK        -0.4218 
     28 C         -71.2811   27.5722  -75.6421 C.2       9 UNK         0.5020 
     29 O         -70.4500   27.7727  -74.7550 O.2       9 UNK        -0.5274 
     30 CA        -71.0926   26.3592  -76.5698 C.3       8 UNK         0.0270 
     31 CB        -70.3286   25.2099  -75.8745 C.3       8 UNK        -0.1976 
     32 N         -72.3414   25.8379  -77.1417 N.am      8 UNK        -0.4313 
     33 C         -72.3791   25.1794  -78.3117 C.2       8 UNK         0.5041 
     34 O         -71.4230   25.1063  -79.0861 O.2       8 UNK        -0.5577 
     35 CA        -73.6727   24.4314  -78.6711 C.3       7 UNK         0.0284 
     36 CB        -73.8579   23.2031  -77.7651 C.3       7 UNK        -0.1958 
     37 N         -74.8643   25.2741  -78.6194 N.am      7 UNK        -0.4454 
     38 C         -75.1377   26.2628  -79.4818 C.2       7 UNK         0.5089 
     39 O         -74.4224   26.5628  -80.4382 O.2       7 UNK        -0.5125 
     40 CA        -76.4252   27.0666  -79.2231 C.3       6 UNK         0.0408 
     41 CB        -77.6436   26.3697  -79.8499 C.3       6 UNK        -0.1791 
     42 N         -76.6710   27.3032  -77.7982 N.am      6 UNK        -0.4762 
     43 C         -75.8615   28.0152  -77.0004 C.2       6 UNK         0.5007 
     44 O         -74.8291   28.5642  -77.3852 O.2       6 UNK        -0.5032 
     45 CA        -76.2341   28.0570  -75.5084 C.3       5 UNK         0.0783 
     46 C46       -77.3242   29.1137  -75.2092 C.3       11 UNK        -0.0857 
     47 S47       -76.6040   30.7825  -75.0494 S.3       11 UNK        -0.2512 
     48 C48       -77.8097   31.6262  -73.9710 C.3       11 UNK         0.0225 
     49 N         -76.5803   26.7179  -75.0284 N.am      5 UNK        -0.4615 
     50 C         -75.6823   25.7351  -74.8543 C.2       4 UNK         0.5053 
     51 O         -74.4622   25.8996  -74.9649 O.2       4 UNK        -0.5105 
     52 CA        -76.2202   24.3295  -74.5355 C.3       4 UNK         0.0263 
     53 CB        -76.1797   24.0382  -73.0292 C.3       4 UNK        -0.1981 
     54 N         -77.5761   24.1071  -75.0408 N.am      4 UNK        -0.4224 
     55 C         -77.8750   23.9575  -76.3394 C.2       3 UNK         0.4895 
     56 O         -77.0261   24.0251  -77.2275 O.2       3 UNK        -0.5091 
     57 CA        -79.3459   23.7461  -76.7463 C.3       3 UNK         0.0250 
     58 CB        -79.5214   22.4902  -77.6242 C.3       3 UNK        -0.1996 
     59 N         -80.3015   23.7699  -75.6321 N.am      3 UNK        -0.4254 
     60 C         -80.4739   22.8789  -74.6440 C.2       2 UNK         0.5004 
     61 O         -79.8619   21.8142  -74.5546 O.2       2 UNK        -0.5226 
     62 CA        -81.4826   23.2917  -73.5517 C.3       2 UNK         0.0269 
     63 CB        -81.3227   22.4828  -72.2460 C.3       2 UNK        -0.1926 
     64 N         -81.4572   24.7397  -73.2837 N.am      2 UNK        -0.4687 
     65 C         -80.4177   25.4580  -72.8240 C.2       1 UNK         0.5165 
     66 O         -79.3321   24.9745  -72.5090 O.2       1 UNK        -0.5079 
     67 H67       -81.4470   27.3018  -77.1951 H         1 UNK         0.0900 
     68 H68       -82.1801   28.5194  -76.1475 H         1 UNK         0.0900 
     69 H69       -80.5942   28.8117  -76.8650 H         1 UNK         0.0900 
     70 H70       -82.0122   28.0218  -73.9676 H         1 UNK         0.2959 
     71 H71       -79.6307   27.4362  -72.6407 H         1 UNK         0.1079 
     72 H72       -80.9647   27.1227  -70.6259 H         1 UNK         0.0837 
     73 H73       -82.4100   26.7867  -71.5358 H         1 UNK         0.0837 
     74 H74       -81.2202   30.8017  -69.9732 H         1 UNK         0.0685 
     75 H75       -80.7877   29.2051  -69.4185 H         1 UNK         0.0685 
     76 H76       -80.1209   30.9825  -72.6911 H         1 UNK         0.1434 
     77 H77       -75.8642   30.8330  -72.2099 H         1 UNK         0.1329 
     78 H78       -78.4185   29.2397  -69.1602 H         1 UNK         0.1335 
     79 H79       -74.9000   30.1179  -70.1466 H         1 UNK         0.0680 
     80 H80       -75.9301   29.9195  -68.7505 H         1 UNK         0.0680 
     81 H81       -75.5186   26.5556  -71.8569 H         1 UNK         0.1032 
     82 H82       -75.6281   28.2441  -72.1711 H         1 UNK         0.1032 
     83 H83       -73.1059   28.2670  -71.1792 H         1 UNK         0.0461 
     84 H84       -72.2581   24.4692  -72.4448 H         1 UNK         0.3453 
     85 H85       -73.1507   25.5057  -73.5289 H         1 UNK         0.3453 
     86 H86       -73.3835   27.3637  -73.9651 H         1 UNK         0.2984 
     87 H87       -73.6282   29.9421  -75.4741 H         1 UNK         0.0554 
     88 H88       -71.9772   31.6259  -74.8394 H         1 UNK         0.0847 
     89 H89       -71.4739   30.8688  -76.3394 H         1 UNK         0.0847 
     90 H90       -70.6853   30.4373  -74.8221 H         1 UNK         0.0847 
     91 H91       -72.9862   28.1547  -76.6008 H         1 UNK         0.3141 
     92 H92       -70.4656   26.7327  -77.3821 H         1 UNK         0.0743 
     93 H93       -70.8918   24.8110  -75.0303 H         1 UNK         0.0784 
     94 H94       -70.1280   24.3875  -76.5611 H         1 UNK         0.0784 
     95 H95       -69.3622   25.5447  -75.4954 H         1 UNK         0.0784 
     96 H96       -73.1616   25.8467  -76.5422 H         1 UNK         0.3213 
     97 H97       -73.5704   24.0713  -79.6974 H         1 UNK         0.0855 
     98 H98       -73.9667   23.4842  -76.7182 H         1 UNK         0.0814 
     99 H99       -72.9975   22.5361  -77.8338 H         1 UNK         0.0814 
    100 H100      -74.7378   22.6265  -78.0513 H         1 UNK         0.0814 
    101 H101      -75.5714   25.0278  -77.9312 H         1 UNK         0.3105 
    102 H102      -76.3089   28.0405  -79.7033 H         1 UNK         0.0547 
    103 H103      -77.4973   26.2227  -80.9208 H         1 UNK         0.0837 
    104 H104      -77.8230   25.3882  -79.4106 H         1 UNK         0.0837 
    105 H105      -78.5491   26.9639  -79.7267 H         1 UNK         0.0837 
    106 H106      -77.4816   26.8592  -77.3900 H         1 UNK         0.3020 
    107 H107      -75.3399   28.3519  -74.9652 H         1 UNK         0.1245 
    108 H108      -77.8254   28.8626  -74.2737 H         1 UNK         0.0781 
    109 H109      -78.1034   29.1285  -75.9730 H         1 UNK         0.0781 
    110 H110      -78.7651   31.6758  -74.4958 H         1 UNK         0.0836 
    111 H111      -77.4862   32.6571  -73.8220 H         1 UNK         0.0836 
    112 H112      -77.5729   26.5104  -74.9581 H         1 UNK         0.3022 
    113 H113      -75.5613   23.6104  -75.0242 H         1 UNK         0.0747 
    114 H114      -76.7870   24.7418  -72.4618 H         1 UNK         0.0793 
    115 H115      -76.5462   23.0348  -72.8115 H         1 UNK         0.0793 
    116 H116      -75.1627   24.0964  -72.6436 H         1 UNK         0.0793 
    117 H117      -78.3226   24.0904  -74.3569 H         1 UNK         0.3047 
    118 H118      -79.6009   24.6098  -77.3623 H         1 UNK         0.0822 
    119 H119      -80.5577   22.3657  -77.9379 H         1 UNK         0.0807 
    120 H120      -79.2150   21.5825  -77.1037 H         1 UNK         0.0807 
    121 H121      -78.9163   22.5603  -78.5291 H         1 UNK         0.0807 
    122 H122      -80.8267   24.6297  -75.5566 H         1 UNK         0.2946 
    123 H123      -82.4705   23.0661  -73.9574 H         1 UNK         0.1144 
    124 H124      -82.0483   22.7944  -71.4948 H         1 UNK         0.0793 
    125 H125      -80.3263   22.5933  -71.8171 H         1 UNK         0.0793 
    126 H126      -81.4805   21.4185  -72.4249 H         1 UNK         0.0793 
    127 H127      -82.2972   25.2452  -73.5319 H         1 UNK         0.2896 
@<TRIPOS>BOND
     1    1    2 1    
     2    1   67 1    
     3    1   68 1    
     4    1   69 1    
     5    2    3 2    
     6    2    4 am   BACKBONE|DICT|INTERRES
     7    4    5 1    
     8    4   70 1    
     9    5    6 1    
    10    5   65 1    
    11    5   71 1    
    12    6    7 1    
    13    6   72 1    
    14    6   73 1    
    15    7    8 1    
    16    8    9 1    
    17    8   74 1    
    18    8   75 1    
    19    9   10 ar   
    20    9   14 ar   
    21   10   11 ar   
    22   10   76 1    
    23   11   12 ar   
    24   11   48 1    
    25   12   13 ar   
    26   12   77 1    
    27   13   14 ar   
    28   13   15 1    
    29   14   78 1    
    30   15   16 1    
    31   15   79 1    
    32   15   80 1    
    33   16   17 1    
    34   17   18 1    
    35   17   81 1    
    36   17   82 1    
    37   18   19 1    
    38   18   22 1    
    39   18   83 1    
    40   19   20 am   BACKBONE|DICT|INTERRES
    41   19   21 2    
    42   20   84 1    
    43   20   85 1    
    44   22   23 am   BACKBONE|DICT|INTERRES
    45   22   86 1    
    46   23   24 2    
    47   23   25 1    
    48   25   26 1    
    49   25   27 1    
    50   25   87 1    
    51   26   88 1    
    52   26   89 1    
    53   26   90 1    
    54   27   28 am   BACKBONE|DICT|INTERRES
    55   27   91 1    
    56   28   29 2    
    57   28   30 1    
    58   30   31 1    
    59   30   32 1    
    60   30   92 1    
    61   31   93 1    
    62   31   94 1    
    63   31   95 1    
    64   32   33 am   BACKBONE|DICT|INTERRES
    65   32   96 1    
    66   33   34 2    
    67   33   35 1    
    68   35   36 1    
    69   35   37 1    
    70   35   97 1    
    71   36   98 1    
    72   36   99 1    
    73   36  100 1    
    74   37   38 am   BACKBONE|DICT|INTERRES
    75   37  101 1    
    76   38   39 2    
    77   38   40 1    
    78   40   41 1    
    79   40   42 1    
    80   40  102 1    
    81   41  103 1    
    82   41  104 1    
    83   41  105 1    
    84   42   43 am   BACKBONE|DICT|INTERRES
    85   42  106 1    
    86   43   44 2    
    87   43   45 1    
    88   45   46 1    
    89   45   49 1    
    90   45  107 1    
    91   46   47 1    
    92   46  108 1    
    93   46  109 1    
    94   47   48 1    
    95   48  110 1    
    96   48  111 1    
    97   49   50 am   BACKBONE|DICT|INTERRES
    98   49  112 1    
    99   50   51 2    
   100   50   52 1    
   101   52   53 1    
   102   52   54 1    
   103   52  113 1    
   104   53  114 1    
   105   53  115 1    
   106   53  116 1    
   107   54   55 am   BACKBONE|DICT|INTERRES
   108   54  117 1    
   109   55   56 2    
   110   55   57 1    
   111   57   58 1    
   112   57   59 1    
   113   57  118 1    
   114   58  119 1    
   115   58  120 1    
   116   58  121 1    
   117   59   60 am   BACKBONE|DICT|INTERRES
   118   59  122 1    
   119   60   61 2    
   120   60   62 1    
   121   62   63 1    
   122   62   64 1    
   123   62  123 1    
   124   63  124 1    
   125   63  125 1    
   126   63  126 1    
   127   64   65 am   BACKBONE|DICT|INTERRES
   128   64  127 1    
   129   65   66 2    
@<TRIPOS>SUBSTRUCTURE
     1 UNK         1 GROUP             0       ****    0 ROOT    
