@<TRIPOS>MOLECULE
3R135
127   129    1
SMALL
USER_CHARGES


@<TRIPOS>ATOM
      1 CA        -77.5383   25.6536  -71.8910 C.3       0 UNK        -0.1998 
      2 C         -78.9963   25.3261  -71.6205 C.2       0 UNK         0.4909 
      3 O         -79.3533   24.1505  -71.5317 O.2       0 UNK        -0.5240 
      4 N         -79.8411   26.3570  -71.4849 N.am      1 UNK        -0.4739 
      5 CA        -81.2853   26.2434  -71.2495 C.3       1 UNK         0.0864 
      6 C6        -81.9446   27.6068  -70.9112 C.3       11 UNK        -0.0881 
      7 S7        -81.2365   28.3986  -69.4244 S.3       11 UNK        -0.2682 
      8 C8        -80.5326   29.9398  -70.0996 C.3       11 UNK         0.0289 
      9 C9        -79.3138   29.6657  -70.9670 C.ar      11 UNK        -0.0687 
     10 C10       -79.4335   29.6200  -72.3582 C.ar      11 UNK        -0.0823 
     11 C11       -78.3314   29.2965  -73.1517 C.ar      11 UNK        -0.0830 
     12 C12       -77.1003   29.0339  -72.5423 C.ar      11 UNK        -0.1021 
     13 C13       -76.9490   29.1264  -71.1526 C.ar      11 UNK        -0.0753 
     14 C14       -78.0686   29.4365  -70.3746 C.ar      11 UNK        -0.0933 
     15 C15       -75.6234   28.8540  -70.4365 C.3       11 UNK         0.0166 
     16 S16       -74.1486   28.6766  -71.5015 S.3       11 UNK        -0.2615 
     17 C17       -73.8078   30.4046  -71.9943 C.3       11 UNK        -0.0865 
     18 CA        -73.8718   30.6440  -73.5353 C.3       10 UNK         0.0862 
     19 C         -73.6417   32.1346  -73.9291 C.2       10 UNK         0.5551 
     20 N         -74.3209   33.0679  -73.2746 N.am      10 UNK        -0.7319 
     21 O         -72.8858   32.4641  -74.8419 O.2       10 UNK        -0.5018 
     22 N         -73.0487   29.6996  -74.3104 N.am      10 UNK        -0.4509 
     23 C         -71.7223   29.5284  -74.2223 C.2       10 UNK         0.4899 
     24 O         -70.9886   30.1472  -73.4488 O.2       10 UNK        -0.4839 
     25 CA        -71.1299   28.4655  -75.1669 C.3       9 UNK         0.0222 
     26 CB        -69.6416   28.1560  -74.8980 C.3       9 UNK        -0.1966 
     27 N         -71.9435   27.2449  -75.1830 N.am      9 UNK        -0.4218 
     28 C         -72.1582   26.3797  -74.1790 C.2       9 UNK         0.5020 
     29 O         -71.5948   26.4276  -73.0850 O.2       9 UNK        -0.5274 
     30 CA        -73.1871   25.2620  -74.4389 C.3       8 UNK         0.0270 
     31 CB        -74.5673   25.6691  -73.8972 C.3       8 UNK        -0.1976 
     32 N         -73.3170   24.9079  -75.8547 N.am      8 UNK        -0.4313 
     33 C         -72.3675   24.3056  -76.5850 C.2       8 UNK         0.5041 
     34 O         -71.2924   23.9133  -76.1302 O.2       8 UNK        -0.5577 
     35 CA        -72.6595   24.1409  -78.0835 C.3       7 UNK         0.0284 
     36 CB        -73.5505   22.9135  -78.3353 C.3       7 UNK        -0.1958 
     37 N         -73.2898   25.3419  -78.6384 N.am      7 UNK        -0.4454 
     38 C         -72.6251   26.4626  -78.9571 C.2       7 UNK         0.5089 
     39 O         -71.4034   26.5825  -78.8696 O.2       7 UNK        -0.5125 
     40 CA        -73.4605   27.6600  -79.4456 C.3       6 UNK         0.0408 
     41 CB        -73.6018   27.6267  -80.9755 C.3       6 UNK        -0.1791 
     42 N         -74.7907   27.7209  -78.8352 N.am      6 UNK        -0.4762 
     43 C         -75.0239   28.0293  -77.5513 C.2       6 UNK         0.5007 
     44 O         -74.1425   28.3338  -76.7470 O.2       6 UNK        -0.5032 
     45 CA        -76.4815   27.9167  -77.0670 C.3       5 UNK         0.0783 
     46 C46       -77.2475   29.2645  -77.1563 C.3       11 UNK        -0.0857 
     47 S47       -77.2360   30.1469  -75.5667 S.3       11 UNK        -0.2512 
     48 C48       -78.4865   29.1746  -74.6606 C.3       11 UNK         0.0225 
     49 N         -77.2300   26.8294  -77.7046 N.am      5 UNK        -0.4615 
     50 C         -76.9422   25.5312  -77.5645 C.2       4 UNK         0.5053 
     51 O         -75.9207   25.1083  -77.0187 O.2       4 UNK        -0.5105 
     52 CA        -77.9694   24.5388  -78.1286 C.3       4 UNK         0.0263 
     53 CB        -77.3923   23.7860  -79.3381 C.3       4 UNK        -0.1981 
     54 N         -78.3969   23.5789  -77.1081 N.am      4 UNK        -0.4224 
     55 C         -79.0375   23.9002  -75.9746 C.2       3 UNK         0.4895 
     56 O         -79.3716   25.0491  -75.6724 O.2       3 UNK        -0.5091 
     57 CA        -79.3198   22.7378  -75.0081 C.3       3 UNK         0.0250 
     58 CB        -78.0657   22.4144  -74.1791 C.3       3 UNK        -0.1996 
     59 N         -80.4341   23.0430  -74.1057 N.am      3 UNK        -0.4254 
     60 C         -81.7252   23.0242  -74.4718 C.2       2 UNK         0.5004 
     61 O         -82.1086   22.6783  -75.5907 O.2       2 UNK        -0.5226 
     62 CA        -82.7783   23.4344  -73.4246 C.3       2 UNK         0.0269 
     63 CB        -83.4359   22.1880  -72.8091 C.3       2 UNK        -0.1926 
     64 N         -82.2330   24.2649  -72.3487 N.am      2 UNK        -0.4687 
     65 C         -81.9756   25.5750  -72.4580 C.2       1 UNK         0.5165 
     66 O         -82.2383   26.2428  -73.4602 O.2       1 UNK        -0.5079 
     67 H67       -77.1552   26.3397  -71.1384 H         1 UNK         0.0900 
     68 H68       -77.4273   26.1082  -72.8751 H         1 UNK         0.0900 
     69 H69       -76.9261   24.7530  -71.8585 H         1 UNK         0.0900 
     70 H70       -79.4884   27.3022  -71.5604 H         1 UNK         0.2959 
     71 H71       -81.4217   25.5941  -70.3817 H         1 UNK         0.1079 
     72 H72       -81.8841   28.2895  -71.7593 H         1 UNK         0.0837 
     73 H73       -83.0110   27.4669  -70.7241 H         1 UNK         0.0837 
     74 H74       -80.2502   30.5906  -69.2707 H         1 UNK         0.0685 
     75 H75       -81.2980   30.4779  -70.6611 H         1 UNK         0.0685 
     76 H76       -80.3925   29.8077  -72.8217 H         1 UNK         0.1434 
     77 H77       -76.2663   28.7485  -73.1655 H         1 UNK         0.1329 
     78 H78       -77.9774   29.4785  -69.2975 H         1 UNK         0.1335 
     79 H79       -75.4344   29.6432  -69.7071 H         1 UNK         0.0680 
     80 H80       -75.7308   27.9322  -69.8637 H         1 UNK         0.0680 
     81 H81       -72.8253   30.6789  -71.6075 H         1 UNK         0.1032 
     82 H82       -74.5170   31.0536  -71.4796 H         1 UNK         0.1032 
     83 H83       -74.8905   30.4367  -73.8551 H         1 UNK         0.0461 
     84 H84       -74.1892   34.0340  -73.5307 H         1 UNK         0.3453 
     85 H85       -74.9796   32.8299  -72.5505 H         1 UNK         0.3453 
     86 H86       -73.5398   29.1834  -75.0328 H         1 UNK         0.2984 
     87 H87       -71.1985   28.8820  -76.1730 H         1 UNK         0.0554 
     88 H88       -69.2634   27.4006  -75.5868 H         1 UNK         0.0847 
     89 H89       -69.4761   27.7977  -73.8817 H         1 UNK         0.0847 
     90 H90       -69.0300   29.0495  -75.0281 H         1 UNK         0.0847 
     91 H91       -72.5245   27.1391  -76.0056 H         1 UNK         0.3141 
     92 H92       -72.8547   24.3723  -73.9000 H         1 UNK         0.0743 
     93 H93       -74.9328   26.5809  -74.3700 H         1 UNK         0.0784 
     94 H94       -75.3072   24.8852  -74.0607 H         1 UNK         0.0784 
     95 H95       -74.5225   25.8567  -72.8236 H         1 UNK         0.0784 
     96 H96       -74.2099   25.1139  -76.2996 H         1 UNK         0.3213 
     97 H97       -71.7088   23.9775  -78.5965 H         1 UNK         0.0855 
     98 H98       -74.4951   22.9767  -77.7951 H         1 UNK         0.0814 
     99 H99       -73.0520   22.0015  -78.0046 H         1 UNK         0.0814 
    100 H100      -73.7743   22.7936  -79.3954 H         1 UNK         0.0814 
    101 H101      -74.2988   25.3462  -78.6881 H         1 UNK         0.3105 
    102 H102      -72.9217   28.5708  -79.1748 H         1 UNK         0.0547 
    103 H103      -72.6228   27.6072  -81.4564 H         1 UNK         0.0837 
    104 H104      -74.1479   26.7453  -81.3141 H         1 UNK         0.0837 
    105 H105      -74.1238   28.5092  -81.3456 H         1 UNK         0.0837 
    106 H106      -75.5779   27.4805  -79.4208 H         1 UNK         0.3020 
    107 H107      -76.4036   27.6237  -76.0179 H         1 UNK         0.1245 
    108 H108      -76.8390   29.9193  -77.9290 H         1 UNK         0.0781 
    109 H109      -78.2920   29.1113  -77.4333 H         1 UNK         0.0781 
    110 H110      -79.4773   29.5006  -74.9808 H         1 UNK         0.0836 
    111 H111      -78.4148   28.1180  -74.9221 H         1 UNK         0.0836 
    112 H112      -78.0834   27.0890  -78.1778 H         1 UNK         0.3022 
    113 H113      -78.8538   25.0887  -78.4572 H         1 UNK         0.0747 
    114 H114      -78.1399   23.1352  -79.7923 H         1 UNK         0.0793 
    115 H115      -77.0591   24.4808  -80.1102 H         1 UNK         0.0793 
    116 H116      -76.5368   23.1693  -79.0627 H         1 UNK         0.0793 
    117 H117      -78.1277   22.6174  -77.2571 H         1 UNK         0.3047 
    118 H118      -79.5846   21.8545  -75.5937 H         1 UNK         0.0822 
    119 H119      -78.2565   21.6169  -73.4608 H         1 UNK         0.0807 
    120 H120      -77.7130   23.2850  -73.6277 H         1 UNK         0.0807 
    121 H121      -77.2456   22.0854  -74.8187 H         1 UNK         0.0807 
    122 H122      -80.1901   23.3826  -73.1803 H         1 UNK         0.2946 
    123 H123      -83.5497   24.0032  -73.9495 H         1 UNK         0.1144 
    124 H124      -83.8797   21.5588  -73.5821 H         1 UNK         0.0793 
    125 H125      -84.2341   22.4603  -72.1183 H         1 UNK         0.0793 
    126 H126      -82.7141   21.5765  -72.2660 H         1 UNK         0.0793 
    127 H127      -81.9341   23.7824  -71.5121 H         1 UNK         0.2896 
@<TRIPOS>BOND
     1    1    2 1    
     2    1   67 1    
     3    1   68 1    
     4    1   69 1    
     5    2    3 2    
     6    2    4 am   BACKBONE|DICT|INTERRES
     7    4    5 1    
     8    4   70 1    
     9    5    6 1    
    10    5   65 1    
    11    5   71 1    
    12    6    7 1    
    13    6   72 1    
    14    6   73 1    
    15    7    8 1    
    16    8    9 1    
    17    8   74 1    
    18    8   75 1    
    19    9   10 ar   
    20    9   14 ar   
    21   10   11 ar   
    22   10   76 1    
    23   11   12 ar   
    24   11   48 1    
    25   12   13 ar   
    26   12   77 1    
    27   13   14 ar   
    28   13   15 1    
    29   14   78 1    
    30   15   16 1    
    31   15   79 1    
    32   15   80 1    
    33   16   17 1    
    34   17   18 1    
    35   17   81 1    
    36   17   82 1    
    37   18   19 1    
    38   18   22 1    
    39   18   83 1    
    40   19   20 am   BACKBONE|DICT|INTERRES
    41   19   21 2    
    42   20   84 1    
    43   20   85 1    
    44   22   23 am   BACKBONE|DICT|INTERRES
    45   22   86 1    
    46   23   24 2    
    47   23   25 1    
    48   25   26 1    
    49   25   27 1    
    50   25   87 1    
    51   26   88 1    
    52   26   89 1    
    53   26   90 1    
    54   27   28 am   BACKBONE|DICT|INTERRES
    55   27   91 1    
    56   28   29 2    
    57   28   30 1    
    58   30   31 1    
    59   30   32 1    
    60   30   92 1    
    61   31   93 1    
    62   31   94 1    
    63   31   95 1    
    64   32   33 am   BACKBONE|DICT|INTERRES
    65   32   96 1    
    66   33   34 2    
    67   33   35 1    
    68   35   36 1    
    69   35   37 1    
    70   35   97 1    
    71   36   98 1    
    72   36   99 1    
    73   36  100 1    
    74   37   38 am   BACKBONE|DICT|INTERRES
    75   37  101 1    
    76   38   39 2    
    77   38   40 1    
    78   40   41 1    
    79   40   42 1    
    80   40  102 1    
    81   41  103 1    
    82   41  104 1    
    83   41  105 1    
    84   42   43 am   BACKBONE|DICT|INTERRES
    85   42  106 1    
    86   43   44 2    
    87   43   45 1    
    88   45   46 1    
    89   45   49 1    
    90   45  107 1    
    91   46   47 1    
    92   46  108 1    
    93   46  109 1    
    94   47   48 1    
    95   48  110 1    
    96   48  111 1    
    97   49   50 am   BACKBONE|DICT|INTERRES
    98   49  112 1    
    99   50   51 2    
   100   50   52 1    
   101   52   53 1    
   102   52   54 1    
   103   52  113 1    
   104   53  114 1    
   105   53  115 1    
   106   53  116 1    
   107   54   55 am   BACKBONE|DICT|INTERRES
   108   54  117 1    
   109   55   56 2    
   110   55   57 1    
   111   57   58 1    
   112   57   59 1    
   113   57  118 1    
   114   58  119 1    
   115   58  120 1    
   116   58  121 1    
   117   59   60 am   BACKBONE|DICT|INTERRES
   118   59  122 1    
   119   60   61 2    
   120   60   62 1    
   121   62   63 1    
   122   62   64 1    
   123   62  123 1    
   124   63  124 1    
   125   63  125 1    
   126   63  126 1    
   127   64   65 am   BACKBONE|DICT|INTERRES
   128   64  127 1    
   129   65   66 2    
@<TRIPOS>SUBSTRUCTURE
     1 UNK         1 GROUP             0       ****    0 ROOT    
