@<TRIPOS>MOLECULE
3R135
127   129    1
SMALL
USER_CHARGES


@<TRIPOS>ATOM
      1 CA        -83.4776   32.1618  -76.3694 C.3       0 UNK        -0.1998 
      2 C         -82.2483   31.3399  -76.0120 C.2       0 UNK         0.4909 
      3 O         -81.1423   31.6809  -76.4316 O.2       0 UNK        -0.5240 
      4 N         -82.4339   30.2636  -75.2353 N.am      1 UNK        -0.4739 
      5 CA        -81.3769   29.3340  -74.8187 C.3       1 UNK         0.0864 
      6 C6        -81.8735   28.4313  -73.6578 C.3       11 UNK        -0.0881 
      7 S7        -80.6125   27.2895  -73.0009 S.3       11 UNK        -0.2682 
      8 C8        -79.9653   28.2190  -71.5834 C.3       11 UNK         0.0289 
      9 C9        -78.6874   27.5864  -71.0513 C.ar      11 UNK        -0.0687 
     10 C10       -78.7460   26.4546  -70.2309 C.ar      11 UNK        -0.0823 
     11 C11       -77.5751   25.8940  -69.7092 C.ar      11 UNK        -0.0830 
     12 C12       -76.3417   26.4810  -70.0052 C.ar      11 UNK        -0.1021 
     13 C13       -76.2694   27.5977  -70.8400 C.ar      11 UNK        -0.0753 
     14 C14       -77.4440   28.1438  -71.3657 C.ar      11 UNK        -0.0933 
     15 C15       -74.9207   28.2164  -71.1640 C.3       11 UNK         0.0166 
     16 S16       -74.0980   27.2944  -72.4934 S.3       11 UNK        -0.2615 
     17 C17       -72.7164   28.4174  -72.8913 C.3       11 UNK        -0.0865 
     18 CA        -73.1341   29.5413  -73.8760 C.3       10 UNK         0.0862 
     19 C         -71.9957   30.5815  -74.0898 C.2       10 UNK         0.5551 
     20 N         -71.6701   30.9870  -75.3118 N.am      10 UNK        -0.7319 
     21 O         -71.4044   31.0511  -73.1204 O.2       10 UNK        -0.5018 
     22 N         -73.6667   28.9891  -75.1300 N.am      10 UNK        -0.4509 
     23 C         -74.7461   29.4505  -75.7749 C.2       10 UNK         0.4899 
     24 O         -75.4654   30.3538  -75.3450 O.2       10 UNK        -0.4839 
     25 CA        -75.0661   28.8028  -77.1404 C.3       9 UNK         0.0222 
     26 CB        -75.9371   29.7054  -78.0393 C.3       9 UNK        -0.1966 
     27 N         -73.8728   28.3457  -77.8649 N.am      9 UNK        -0.4218 
     28 C         -72.8050   29.0813  -78.2123 C.2       9 UNK         0.5020 
     29 O         -72.7151   30.2943  -78.0125 O.2       9 UNK        -0.5274 
     30 CA        -71.6257   28.3237  -78.8548 C.3       8 UNK         0.0270 
     31 CB        -70.2834   29.0665  -78.6782 C.3       8 UNK        -0.1976 
     32 N         -71.4990   26.9276  -78.4078 N.am      8 UNK        -0.4313 
     33 C         -71.3245   26.4839  -77.1528 C.2       8 UNK         0.5041 
     34 O         -71.2935   27.2111  -76.1561 O.2       8 UNK        -0.5577 
     35 CA        -71.1286   24.9620  -77.0200 C.3       7 UNK         0.0284 
     36 CB        -69.7092   24.5663  -77.4641 C.3       7 UNK        -0.1958 
     37 N         -71.3504   24.4458  -75.6673 N.am      7 UNK        -0.4454 
     38 C         -72.5089   24.4697  -74.9974 C.2       7 UNK         0.5089 
     39 O         -73.5532   24.9622  -75.4339 O.2       7 UNK        -0.5125 
     40 CA        -72.4914   23.7804  -73.6238 C.3       6 UNK         0.0408 
     41 CB        -71.5285   24.4631  -72.6340 C.3       6 UNK        -0.1791 
     42 N         -73.8401   23.7633  -73.0647 N.am      6 UNK        -0.4762 
     43 C         -74.3774   22.7693  -72.3469 C.2       6 UNK         0.5007 
     44 O         -73.7561   21.7539  -72.0285 O.2       6 UNK        -0.5032 
     45 CA        -75.8479   22.9166  -71.8967 C.3       5 UNK         0.0783 
     46 C46       -75.9411   23.0018  -70.3520 C.3       11 UNK        -0.0857 
     47 S47       -77.6619   23.1136  -69.7465 S.3       11 UNK        -0.2512 
     48 C48       -77.6443   24.6727  -68.8033 C.3       11 UNK         0.0225 
     49 N         -76.5437   24.0253  -72.5627 N.am      5 UNK        -0.4615 
     50 C         -77.0228   23.9684  -73.8105 C.2       4 UNK         0.5053 
     51 O         -76.8657   23.0048  -74.5643 O.2       4 UNK        -0.5105 
     52 CA        -77.7875   25.2076  -74.3003 C.3       4 UNK         0.0263 
     53 CB        -76.8463   26.1652  -75.0433 C.3       4 UNK        -0.1981 
     54 N         -78.9054   24.8703  -75.1840 N.am      4 UNK        -0.4224 
     55 C         -79.9833   24.1523  -74.8405 C.2       3 UNK         0.4895 
     56 O         -80.1630   23.6781  -73.7171 O.2       3 UNK        -0.5091 
     57 CA        -81.0536   23.9669  -75.9333 C.3       3 UNK         0.0250 
     58 CB        -82.3272   23.2779  -75.4067 C.3       3 UNK        -0.1996 
     59 N         -81.4259   25.2561  -76.5205 N.am      3 UNK        -0.4254 
     60 C         -80.8859   25.7940  -77.6223 C.2       2 UNK         0.5004 
     61 O         -80.0077   25.2470  -78.2893 O.2       2 UNK        -0.5226 
     62 CA        -81.3890   27.1908  -78.0304 C.3       2 UNK         0.0269 
     63 CB        -82.6075   27.0773  -78.9604 C.3       2 UNK        -0.1926 
     64 N         -81.7300   28.0352  -76.8801 N.am      2 UNK        -0.4687 
     65 C         -80.8277   28.5220  -76.0140 C.2       1 UNK         0.5165 
     66 O         -79.6131   28.3644  -76.1408 O.2       1 UNK        -0.5079 
     67 H67       -83.6109   32.1858  -77.4506 H         1 UNK         0.0900 
     68 H68       -83.3590   33.1863  -76.0177 H         1 UNK         0.0900 
     69 H69       -84.3852   31.7540  -75.9248 H         1 UNK         0.0900 
     70 H70       -83.3665   30.0454  -74.9137 H         1 UNK         0.2959 
     71 H71       -80.5458   29.9338  -74.4402 H         1 UNK         0.1079 
     72 H72       -82.2442   29.0495  -72.8383 H         1 UNK         0.0837 
     73 H73       -82.7254   27.8313  -73.9827 H         1 UNK         0.0837 
     74 H74       -80.7200   28.2530  -70.7963 H         1 UNK         0.0685 
     75 H75       -79.7801   29.2521  -71.8819 H         1 UNK         0.0685 
     76 H76       -79.7052   26.0128  -69.9970 H         1 UNK         0.1434 
     77 H77       -75.4311   26.0716  -69.5905 H         1 UNK         0.1329 
     78 H78       -77.3902   29.0102  -72.0110 H         1 UNK         0.1335 
     79 H79       -74.2857   28.2207  -70.2768 H         1 UNK         0.0680 
     80 H80       -75.0482   29.2582  -71.4608 H         1 UNK         0.0680 
     81 H81       -71.9063   27.8271  -73.3235 H         1 UNK         0.1032 
     82 H82       -72.3263   28.8332  -71.9604 H         1 UNK         0.1032 
     83 H83       -73.9257   30.1074  -73.3834 H         1 UNK         0.0461 
     84 H84       -72.1563   30.6376  -76.1306 H         1 UNK         0.3453 
     85 H85       -70.9352   31.6668  -75.4217 H         1 UNK         0.3453 
     86 H86       -73.0966   28.2698  -75.5616 H         1 UNK         0.2984 
     87 H87       -75.6441   27.9056  -76.9220 H         1 UNK         0.0554 
     88 H88       -76.1622   29.2220  -78.9897 H         1 UNK         0.0847 
     89 H89       -75.4470   30.6559  -78.2528 H         1 UNK         0.0847 
     90 H90       -76.8910   29.9304  -77.5598 H         1 UNK         0.0847 
     91 H91       -73.8297   27.3533  -78.0505 H         1 UNK         0.3141 
     92 H92       -71.8427   28.2855  -79.9233 H         1 UNK         0.0743 
     93 H93       -70.0317   29.1983  -77.6250 H         1 UNK         0.0784 
     94 H94       -69.4647   28.5264  -79.1535 H         1 UNK         0.0784 
     95 H95       -70.3197   30.0585  -79.1302 H         1 UNK         0.0784 
     96 H96       -71.5168   26.2399  -79.1494 H         1 UNK         0.3213 
     97 H97       -71.8512   24.4717  -77.6760 H         1 UNK         0.0855 
     98 H98       -68.9481   25.0229  -76.8297 H         1 UNK         0.0814 
     99 H99       -69.5089   24.8837  -78.4884 H         1 UNK         0.0814 
    100 H100      -69.5686   23.4856  -77.4331 H         1 UNK         0.0814 
    101 H101      -70.5467   24.0389  -75.2128 H         1 UNK         0.3105 
    102 H102      -72.1567   22.7544  -73.7905 H         1 UNK         0.0547 
    103 H103      -70.4999   24.4375  -72.9940 H         1 UNK         0.0837 
    104 H104      -71.7888   25.5076  -72.4712 H         1 UNK         0.0837 
    105 H105      -71.5394   23.9641  -71.6650 H         1 UNK         0.0837 
    106 H106      -74.4253   24.5390  -73.3498 H         1 UNK         0.3020 
    107 H107      -76.3444   21.9907  -72.1972 H         1 UNK         0.1245 
    108 H108      -75.3532   23.8385  -69.9761 H         1 UNK         0.0781 
    109 H109      -75.5011   22.1102  -69.9008 H         1 UNK         0.0781 
    110 H110      -76.8098   24.6665  -68.1002 H         1 UNK         0.0836 
    111 H111      -78.5481   24.7217  -68.1940 H         1 UNK         0.0836 
    112 H112      -76.7176   24.8460  -71.9977 H         1 UNK         0.3022 
    113 H113      -78.1935   25.7252  -73.4298 H         1 UNK         0.0747 
    114 H114      -77.3580   27.0875  -75.3182 H         1 UNK         0.0793 
    115 H115      -75.9974   26.4437  -74.4215 H         1 UNK         0.0793 
    116 H116      -76.4452   25.7118  -75.9507 H         1 UNK         0.0793 
    117 H117      -78.8462   25.2070  -76.1349 H         1 UNK         0.3047 
    118 H118      -80.6205   23.3207  -76.7001 H         1 UNK         0.0822 
    119 H119      -82.0990   22.2914  -75.0007 H         1 UNK         0.0807 
    120 H120      -83.0593   23.1367  -76.2020 H         1 UNK         0.0807 
    121 H121      -82.8008   23.8568  -74.6127 H         1 UNK         0.0807 
    122 H122      -82.1040   25.8023  -76.0096 H         1 UNK         0.2946 
    123 H123      -80.5815   27.6787  -78.5818 H         1 UNK         0.1144 
    124 H124      -82.3732   26.4713  -79.8368 H         1 UNK         0.0793 
    125 H125      -82.9237   28.0563  -79.3213 H         1 UNK         0.0793 
    126 H126      -83.4579   26.6118  -78.4604 H         1 UNK         0.0793 
    127 H127      -82.7073   28.2398  -76.7293 H         1 UNK         0.2896 
@<TRIPOS>BOND
     1    1    2 1    
     2    1   67 1    
     3    1   68 1    
     4    1   69 1    
     5    2    3 2    
     6    2    4 am   BACKBONE|DICT|INTERRES
     7    4    5 1    
     8    4   70 1    
     9    5    6 1    
    10    5   65 1    
    11    5   71 1    
    12    6    7 1    
    13    6   72 1    
    14    6   73 1    
    15    7    8 1    
    16    8    9 1    
    17    8   74 1    
    18    8   75 1    
    19    9   10 ar   
    20    9   14 ar   
    21   10   11 ar   
    22   10   76 1    
    23   11   12 ar   
    24   11   48 1    
    25   12   13 ar   
    26   12   77 1    
    27   13   14 ar   
    28   13   15 1    
    29   14   78 1    
    30   15   16 1    
    31   15   79 1    
    32   15   80 1    
    33   16   17 1    
    34   17   18 1    
    35   17   81 1    
    36   17   82 1    
    37   18   19 1    
    38   18   22 1    
    39   18   83 1    
    40   19   20 am   BACKBONE|DICT|INTERRES
    41   19   21 2    
    42   20   84 1    
    43   20   85 1    
    44   22   23 am   BACKBONE|DICT|INTERRES
    45   22   86 1    
    46   23   24 2    
    47   23   25 1    
    48   25   26 1    
    49   25   27 1    
    50   25   87 1    
    51   26   88 1    
    52   26   89 1    
    53   26   90 1    
    54   27   28 am   BACKBONE|DICT|INTERRES
    55   27   91 1    
    56   28   29 2    
    57   28   30 1    
    58   30   31 1    
    59   30   32 1    
    60   30   92 1    
    61   31   93 1    
    62   31   94 1    
    63   31   95 1    
    64   32   33 am   BACKBONE|DICT|INTERRES
    65   32   96 1    
    66   33   34 2    
    67   33   35 1    
    68   35   36 1    
    69   35   37 1    
    70   35   97 1    
    71   36   98 1    
    72   36   99 1    
    73   36  100 1    
    74   37   38 am   BACKBONE|DICT|INTERRES
    75   37  101 1    
    76   38   39 2    
    77   38   40 1    
    78   40   41 1    
    79   40   42 1    
    80   40  102 1    
    81   41  103 1    
    82   41  104 1    
    83   41  105 1    
    84   42   43 am   BACKBONE|DICT|INTERRES
    85   42  106 1    
    86   43   44 2    
    87   43   45 1    
    88   45   46 1    
    89   45   49 1    
    90   45  107 1    
    91   46   47 1    
    92   46  108 1    
    93   46  109 1    
    94   47   48 1    
    95   48  110 1    
    96   48  111 1    
    97   49   50 am   BACKBONE|DICT|INTERRES
    98   49  112 1    
    99   50   51 2    
   100   50   52 1    
   101   52   53 1    
   102   52   54 1    
   103   52  113 1    
   104   53  114 1    
   105   53  115 1    
   106   53  116 1    
   107   54   55 am   BACKBONE|DICT|INTERRES
   108   54  117 1    
   109   55   56 2    
   110   55   57 1    
   111   57   58 1    
   112   57   59 1    
   113   57  118 1    
   114   58  119 1    
   115   58  120 1    
   116   58  121 1    
   117   59   60 am   BACKBONE|DICT|INTERRES
   118   59  122 1    
   119   60   61 2    
   120   60   62 1    
   121   62   63 1    
   122   62   64 1    
   123   62  123 1    
   124   63  124 1    
   125   63  125 1    
   126   63  126 1    
   127   64   65 am   BACKBONE|DICT|INTERRES
   128   64  127 1    
   129   65   66 2    
@<TRIPOS>SUBSTRUCTURE
     1 UNK         1 GROUP             0       ****    0 ROOT    
