@<TRIPOS>MOLECULE
3R135
127   129    1
SMALL
USER_CHARGES


@<TRIPOS>ATOM
      1 CA        -82.6295   32.6144  -77.0550 C.3       0 UNK        -0.1998 
      2 C         -81.3832   31.7576  -76.8891 C.2       0 UNK         0.4909 
      3 O         -80.4396   31.8919  -77.6690 O.2       0 UNK        -0.5240 
      4 N         -81.3680   30.8838  -75.8745 N.am      1 UNK        -0.4739 
      5 CA        -80.2828   29.9349  -75.6127 C.3       1 UNK         0.0864 
      6 C6        -80.3771   29.3663  -74.1753 C.3       11 UNK        -0.0881 
      7 S7        -78.8459   28.5267  -73.6487 S.3       11 UNK        -0.2682 
      8 C8        -78.9353   28.7560  -71.8475 C.3       11 UNK         0.0289 
      9 C9        -77.8333   27.9720  -71.1560 C.ar      11 UNK        -0.0687 
     10 C10       -78.0865   26.6929  -70.6515 C.ar      11 UNK        -0.0823 
     11 C11       -77.0621   25.9441  -70.0621 C.ar      11 UNK        -0.0830 
     12 C12       -75.7767   26.4927  -69.9737 C.ar      11 UNK        -0.1021 
     13 C13       -75.5171   27.7813  -70.4558 C.ar      11 UNK        -0.0753 
     14 C14       -76.5512   28.5158  -71.0432 C.ar      11 UNK        -0.0933 
     15 C15       -74.1264   28.3889  -70.3348 C.3       11 UNK         0.0166 
     16 S16       -73.1749   28.1772  -71.8725 S.3       11 UNK        -0.2615 
     17 C17       -72.6940   29.8922  -72.2743 C.3       11 UNK        -0.0865 
     18 CA        -73.7847   30.6794  -73.0480 C.3       10 UNK         0.0862 
     19 C         -73.2977   32.1239  -73.3460 C.2       10 UNK         0.5551 
     20 N         -73.6467   33.0842  -72.5008 N.am      10 UNK        -0.7319 
     21 O         -72.5662   32.3683  -74.3032 O.2       10 UNK        -0.5018 
     22 N         -74.2248   29.9627  -74.2542 N.am      10 UNK        -0.4509 
     23 C         -75.2674   30.3054  -75.0225 C.2       10 UNK         0.4899 
     24 O         -75.9969   31.2702  -74.7904 O.2       10 UNK        -0.4839 
     25 CA        -75.5908   29.3891  -76.2221 C.3       9 UNK         0.0222 
     26 CB        -76.2202   30.1622  -77.4034 C.3       9 UNK        -0.1966 
     27 N         -74.4662   28.5513  -76.6668 N.am      9 UNK        -0.4218 
     28 C         -73.3273   28.9474  -77.2588 C.2       9 UNK         0.5020 
     29 O         -73.0704   30.1194  -77.5343 O.2       9 UNK        -0.5274 
     30 CA        -72.2788   27.8625  -77.5823 C.3       8 UNK         0.0270 
     31 CB        -70.9314   28.1941  -76.9164 C.3       8 UNK        -0.1976 
     32 N         -72.6831   26.5195  -77.1586 N.am      8 UNK        -0.4313 
     33 C         -73.4419   25.6605  -77.8479 C.2       8 UNK         0.5041 
     34 O         -73.8775   25.8885  -78.9761 O.2       8 UNK        -0.5577 
     35 CA        -73.8139   24.3422  -77.1404 C.3       7 UNK         0.0284 
     36 CB        -72.6218   23.3667  -77.0987 C.3       7 UNK        -0.1958 
     37 N         -74.4076   24.5300  -75.8073 N.am      7 UNK        -0.4454 
     38 C         -73.8559   25.0578  -74.7029 C.2       7 UNK         0.5089 
     39 O         -72.6837   25.4258  -74.6211 O.2       7 UNK        -0.5125 
     40 CA        -74.7924   25.2557  -73.5094 C.3       6 UNK         0.0408 
     41 CB        -75.8063   26.3724  -73.8057 C.3       6 UNK        -0.1791 
     42 N         -75.5096   24.0270  -73.1940 N.am      6 UNK        -0.4762 
     43 C         -75.0799   23.0881  -72.3402 C.2       6 UNK         0.5007 
     44 O         -73.9998   23.1380  -71.7502 O.2       6 UNK        -0.5032 
     45 CA        -76.0241   21.8949  -72.0810 C.3       5 UNK         0.0783 
     46 C46       -76.7761   22.0534  -70.7348 C.3       11 UNK        -0.0857 
     47 S47       -78.0191   23.3998  -70.7221 S.3       11 UNK        -0.2512 
     48 C48       -77.3587   24.5662  -69.4798 C.3       11 UNK         0.0225 
     49 N         -76.9504   21.6577  -73.1923 N.am      5 UNK        -0.4615 
     50 C         -76.6100   21.1227  -74.3719 C.2       4 UNK         0.5053 
     51 O         -75.4913   20.6751  -74.6228 O.2       4 UNK        -0.5105 
     52 CA        -77.6941   21.1076  -75.4658 C.3       4 UNK         0.0263 
     53 CB        -78.4564   19.7730  -75.4478 C.3       4 UNK        -0.1981 
     54 N         -78.6514   22.2178  -75.3691 N.am      4 UNK        -0.4224 
     55 C         -78.3285   23.5119  -75.4952 C.2       3 UNK         0.4895 
     56 O         -77.1763   23.9147  -75.6760 O.2       3 UNK        -0.5091 
     57 CA        -79.4705   24.5257  -75.3214 C.3       3 UNK         0.0250 
     58 CB        -79.6583   24.8634  -73.8328 C.3       3 UNK        -0.1996 
     59 N         -79.2033   25.7636  -76.0538 N.am      3 UNK        -0.4254 
     60 C         -79.2125   25.8835  -77.3895 C.2       2 UNK         0.5004 
     61 O         -79.5331   24.9705  -78.1532 O.2       2 UNK        -0.5226 
     62 CA        -78.7801   27.2497  -77.9625 C.3       2 UNK         0.0269 
     63 CB        -79.3252   27.5105  -79.3832 C.3       2 UNK        -0.1926 
     64 N         -79.0759   28.3771  -77.0663 N.am      2 UNK        -0.4687 
     65 C         -80.2826   28.8043  -76.6645 C.2       1 UNK         0.5165 
     66 O         -81.3534   28.3228  -77.0434 O.2       1 UNK        -0.5079 
     67 H67       -83.3763   32.4007  -76.2906 H         1 UNK         0.0900 
     68 H68       -82.3702   33.6707  -76.9895 H         1 UNK         0.0900 
     69 H69       -83.0811   32.4339  -78.0300 H         1 UNK         0.0900 
     70 H70       -82.1843   30.7927  -75.2866 H         1 UNK         0.2959 
     71 H71       -79.3453   30.4904  -75.6976 H         1 UNK         0.1079 
     72 H72       -81.2174   28.6761  -74.0742 H         1 UNK         0.0837 
     73 H73       -80.5696   30.1814  -73.4755 H         1 UNK         0.0837 
     74 H74       -79.9133   28.4328  -71.4871 H         1 UNK         0.0685 
     75 H75       -78.8478   29.8171  -71.6091 H         1 UNK         0.0685 
     76 H76       -79.0792   26.2710  -70.7308 H         1 UNK         0.1434 
     77 H77       -74.9777   25.9225  -69.5199 H         1 UNK         0.1329 
     78 H78       -76.3563   29.5045  -71.4329 H         1 UNK         0.1335 
     79 H79       -74.2134   29.4460  -70.0799 H         1 UNK         0.0680 
     80 H80       -73.5784   27.9235  -69.5142 H         1 UNK         0.0680 
     81 H81       -71.7762   29.8464  -72.8640 H         1 UNK         0.1032 
     82 H82       -72.4254   30.4097  -71.3512 H         1 UNK         0.1032 
     83 H83       -74.6581   30.7546  -72.3986 H         1 UNK         0.0461 
     84 H84       -74.2382   32.8931  -71.7073 H         1 UNK         0.3453 
     85 H85       -73.3240   34.0245  -72.6683 H         1 UNK         0.3453 
     86 H86       -73.6685   29.1647  -74.5171 H         1 UNK         0.2984 
     87 H87       -76.3437   28.6915  -75.8542 H         1 UNK         0.0554 
     88 H88       -77.1439   30.6607  -77.1076 H         1 UNK         0.0847 
     89 H89       -76.4583   29.5008  -78.2361 H         1 UNK         0.0847 
     90 H90       -75.5530   30.9388  -77.7780 H         1 UNK         0.0847 
     91 H91       -74.5640   27.5603  -76.5034 H         1 UNK         0.3141 
     92 H92       -72.1361   27.8642  -78.6650 H         1 UNK         0.0743 
     93 H93       -70.5593   29.1668  -77.2412 H         1 UNK         0.0784 
     94 H94       -71.0150   28.2228  -75.8291 H         1 UNK         0.0784 
     95 H95       -70.1701   27.4576  -77.1746 H         1 UNK         0.0784 
     96 H96       -72.4105   26.2301  -76.2190 H         1 UNK         0.3213 
     97 H97       -74.5952   23.8745  -77.7423 H         1 UNK         0.0855 
     98 H98       -71.7871   23.7585  -76.5170 H         1 UNK         0.0814 
     99 H99       -72.2492   23.1665  -78.1041 H         1 UNK         0.0814 
    100 H100      -72.9117   22.4100  -76.6639 H         1 UNK         0.0814 
    101 H101      -75.3962   24.2833  -75.7514 H         1 UNK         0.3105 
    102 H102      -74.2002   25.5545  -72.6428 H         1 UNK         0.0547 
    103 H103      -76.3344   26.2304  -74.7480 H         1 UNK         0.0837 
    104 H104      -75.3138   27.3423  -73.8465 H         1 UNK         0.0837 
    105 H105      -76.5566   26.4289  -73.0219 H         1 UNK         0.0837 
    106 H106      -76.3778   23.8719  -73.6888 H         1 UNK         0.3020 
    107 H107      -75.3820   21.0148  -71.9945 H         1 UNK         0.1245 
    108 H108      -76.0653   22.1764  -69.9164 H         1 UNK         0.0781 
    109 H109      -77.3040   21.1250  -70.5115 H         1 UNK         0.0781 
    110 H110      -76.4700   24.1572  -68.9988 H         1 UNK         0.0836 
    111 H111      -78.0991   24.6779  -68.6866 H         1 UNK         0.0836 
    112 H112      -77.8949   21.9877  -73.0582 H         1 UNK         0.3022 
    113 H113      -77.1835   21.1966  -76.4272 H         1 UNK         0.0747 
    114 H114      -79.1627   19.7075  -76.2757 H         1 UNK         0.0793 
    115 H115      -77.7700   18.9304  -75.5436 H         1 UNK         0.0793 
    116 H116      -79.0119   19.6365  -74.5190 H         1 UNK         0.0793 
    117 H117      -79.6172   21.9688  -75.2079 H         1 UNK         0.3047 
    118 H118      -80.3943   24.0905  -75.7085 H         1 UNK         0.0822 
    119 H119      -80.4583   25.5897  -73.6876 H         1 UNK         0.0807 
    120 H120      -78.7503   25.2777  -73.3925 H         1 UNK         0.0807 
    121 H121      -79.9224   23.9757  -73.2568 H         1 UNK         0.0807 
    122 H122      -78.9295   26.5629  -75.5012 H         1 UNK         0.2946 
    123 H123      -77.6927   27.1971  -78.0398 H         1 UNK         0.1144 
    124 H124      -78.9954   28.4774  -79.7632 H         1 UNK         0.0793 
    125 H125      -80.4150   27.4925  -79.4104 H         1 UNK         0.0793 
    126 H126      -78.9721   26.7519  -80.0828 H         1 UNK         0.0793 
    127 H127      -78.2678   28.8386  -76.6758 H         1 UNK         0.2896 
@<TRIPOS>BOND
     1    1    2 1    
     2    1   67 1    
     3    1   68 1    
     4    1   69 1    
     5    2    3 2    
     6    2    4 am   BACKBONE|DICT|INTERRES
     7    4    5 1    
     8    4   70 1    
     9    5    6 1    
    10    5   65 1    
    11    5   71 1    
    12    6    7 1    
    13    6   72 1    
    14    6   73 1    
    15    7    8 1    
    16    8    9 1    
    17    8   74 1    
    18    8   75 1    
    19    9   10 ar   
    20    9   14 ar   
    21   10   11 ar   
    22   10   76 1    
    23   11   12 ar   
    24   11   48 1    
    25   12   13 ar   
    26   12   77 1    
    27   13   14 ar   
    28   13   15 1    
    29   14   78 1    
    30   15   16 1    
    31   15   79 1    
    32   15   80 1    
    33   16   17 1    
    34   17   18 1    
    35   17   81 1    
    36   17   82 1    
    37   18   19 1    
    38   18   22 1    
    39   18   83 1    
    40   19   20 am   BACKBONE|DICT|INTERRES
    41   19   21 2    
    42   20   84 1    
    43   20   85 1    
    44   22   23 am   BACKBONE|DICT|INTERRES
    45   22   86 1    
    46   23   24 2    
    47   23   25 1    
    48   25   26 1    
    49   25   27 1    
    50   25   87 1    
    51   26   88 1    
    52   26   89 1    
    53   26   90 1    
    54   27   28 am   BACKBONE|DICT|INTERRES
    55   27   91 1    
    56   28   29 2    
    57   28   30 1    
    58   30   31 1    
    59   30   32 1    
    60   30   92 1    
    61   31   93 1    
    62   31   94 1    
    63   31   95 1    
    64   32   33 am   BACKBONE|DICT|INTERRES
    65   32   96 1    
    66   33   34 2    
    67   33   35 1    
    68   35   36 1    
    69   35   37 1    
    70   35   97 1    
    71   36   98 1    
    72   36   99 1    
    73   36  100 1    
    74   37   38 am   BACKBONE|DICT|INTERRES
    75   37  101 1    
    76   38   39 2    
    77   38   40 1    
    78   40   41 1    
    79   40   42 1    
    80   40  102 1    
    81   41  103 1    
    82   41  104 1    
    83   41  105 1    
    84   42   43 am   BACKBONE|DICT|INTERRES
    85   42  106 1    
    86   43   44 2    
    87   43   45 1    
    88   45   46 1    
    89   45   49 1    
    90   45  107 1    
    91   46   47 1    
    92   46  108 1    
    93   46  109 1    
    94   47   48 1    
    95   48  110 1    
    96   48  111 1    
    97   49   50 am   BACKBONE|DICT|INTERRES
    98   49  112 1    
    99   50   51 2    
   100   50   52 1    
   101   52   53 1    
   102   52   54 1    
   103   52  113 1    
   104   53  114 1    
   105   53  115 1    
   106   53  116 1    
   107   54   55 am   BACKBONE|DICT|INTERRES
   108   54  117 1    
   109   55   56 2    
   110   55   57 1    
   111   57   58 1    
   112   57   59 1    
   113   57  118 1    
   114   58  119 1    
   115   58  120 1    
   116   58  121 1    
   117   59   60 am   BACKBONE|DICT|INTERRES
   118   59  122 1    
   119   60   61 2    
   120   60   62 1    
   121   62   63 1    
   122   62   64 1    
   123   62  123 1    
   124   63  124 1    
   125   63  125 1    
   126   63  126 1    
   127   64   65 am   BACKBONE|DICT|INTERRES
   128   64  127 1    
   129   65   66 2    
@<TRIPOS>SUBSTRUCTURE
     1 UNK         1 GROUP             0       ****    0 ROOT    
