@<TRIPOS>MOLECULE
3R135
127   129    1
SMALL
USER_CHARGES


@<TRIPOS>ATOM
      1 CA        -84.6297   26.9239  -74.6046 C.3       0 UNK        -0.1998 
      2 C         -83.6437   28.0653  -74.4050 C.2       0 UNK         0.4909 
      3 O         -84.0139   29.2304  -74.5542 O.2       0 UNK        -0.5240 
      4 N         -82.3919   27.7391  -74.0744 N.am      1 UNK        -0.4739 
      5 CA        -81.2987   28.6813  -73.8432 C.3       1 UNK         0.0864 
      6 C6        -81.3267   29.3286  -72.4275 C.3       11 UNK        -0.0881 
      7 S7        -81.6149   28.1645  -71.0437 S.3       11 UNK        -0.2682 
      8 C8        -80.2365   28.5379  -69.9046 C.3       11 UNK         0.0289 
      9 C9        -78.8716   28.0917  -70.4200 C.ar      11 UNK        -0.0687 
     10 C10       -78.7078   26.8415  -71.0257 C.ar      11 UNK        -0.0823 
     11 C11       -77.4644   26.4461  -71.5233 C.ar      11 UNK        -0.0830 
     12 C12       -76.3621   27.2883  -71.3588 C.ar      11 UNK        -0.1021 
     13 C13       -76.5064   28.5372  -70.7504 C.ar      11 UNK        -0.0753 
     14 C14       -77.7633   28.9346  -70.2836 C.ar      11 UNK        -0.0933 
     15 C15       -75.3092   29.4665  -70.6312 C.3       11 UNK         0.0166 
     16 S16       -75.0363   30.3657  -72.1877 S.3       11 UNK        -0.2615 
     17 C17       -73.6829   31.4830  -71.7004 C.3       11 UNK        -0.0865 
     18 CA        -73.0434   32.2041  -72.9155 C.3       10 UNK         0.0862 
     19 C         -72.0559   33.3005  -72.4274 C.2       10 UNK         0.5551 
     20 N         -72.5236   34.5310  -72.2699 N.am      10 UNK        -0.7319 
     21 O         -70.8884   33.0336  -72.1477 O.2       10 UNK        -0.5018 
     22 N         -72.4131   31.2475  -73.8391 N.am      10 UNK        -0.4509 
     23 C         -71.8947   31.5544  -75.0368 C.2       10 UNK         0.4899 
     24 O         -71.9790   32.6682  -75.5556 O.2       10 UNK        -0.4839 
     25 CA        -71.1415   30.4403  -75.7877 C.3       9 UNK         0.0222 
     26 CB        -69.6240   30.6115  -75.6065 C.3       9 UNK        -0.1966 
     27 N         -71.5275   29.0931  -75.3572 N.am      9 UNK        -0.4218 
     28 C         -72.6212   28.4494  -75.7836 C.2       9 UNK         0.5020 
     29 O         -73.4021   28.8990  -76.6255 O.2       9 UNK        -0.5274 
     30 CA        -72.8968   27.0912  -75.1221 C.3       8 UNK         0.0270 
     31 CB        -73.6308   27.2764  -73.7868 C.3       8 UNK        -0.1976 
     32 N         -73.7025   26.2287  -75.9845 N.am      8 UNK        -0.4313 
     33 C         -73.1970   25.4483  -76.9427 C.2       8 UNK         0.5041 
     34 O         -71.9929   25.3674  -77.2069 O.2       8 UNK        -0.5577 
     35 CA        -74.1938   24.5895  -77.7269 C.3       7 UNK         0.0284 
     36 CB        -74.6487   25.2924  -79.0162 C.3       7 UNK        -0.1958 
     37 N         -73.5021   23.3424  -78.0475 N.am      7 UNK        -0.4454 
     38 C         -73.9678   22.0911  -78.1579 C.2       7 UNK         0.5089 
     39 O         -73.2011   21.1571  -78.3933 O.2       7 UNK        -0.5125 
     40 CA        -75.4789   21.8002  -77.9875 C.3       6 UNK         0.0408 
     41 CB        -75.8383   20.3302  -78.2870 C.3       6 UNK        -0.1791 
     42 N         -76.0230   22.1784  -76.6793 N.am      6 UNK        -0.4762 
     43 C         -75.5596   21.8749  -75.4538 C.2       6 UNK         0.5007 
     44 O         -74.5933   21.1404  -75.2486 O.2       6 UNK        -0.5032 
     45 CA        -76.2870   22.5087  -74.2437 C.3       5 UNK         0.0783 
     46 C46       -75.3718   23.5374  -73.5248 C.3       11 UNK        -0.0857 
     47 S47       -75.9947   24.0691  -71.8881 S.3       11 UNK        -0.2512 
     48 C48       -77.3600   25.1792  -72.3574 C.3       11 UNK         0.0225 
     49 N         -77.5539   23.1235  -74.6509 N.am      5 UNK        -0.4615 
     50 C         -78.7135   22.4783  -74.8200 C.2       4 UNK         0.5053 
     51 O         -78.8710   21.2812  -74.5823 O.2       4 UNK        -0.5105 
     52 CA        -79.8928   23.3057  -75.3657 C.3       4 UNK         0.0263 
     53 CB        -80.8949   23.6243  -74.2440 C.3       4 UNK        -0.1981 
     54 N         -79.4871   24.5527  -76.0312 N.am      4 UNK        -0.4224 
     55 C         -78.8286   24.6048  -77.2013 C.2       3 UNK         0.4895 
     56 O         -78.4541   23.6023  -77.8086 O.2       3 UNK        -0.5091 
     57 CA        -78.5027   25.9876  -77.7942 C.3       3 UNK         0.0250 
     58 CB        -79.5485   26.3740  -78.8515 C.3       3 UNK        -0.1996 
     59 N         -78.4071   27.0569  -76.8002 N.am      3 UNK        -0.4254 
     60 C         -77.4551   27.1521  -75.8629 C.2       2 UNK         0.5004 
     61 O         -76.5193   26.3565  -75.7558 O.2       2 UNK        -0.5226 
     62 CA        -77.5858   28.3117  -74.8569 C.3       2 UNK         0.0269 
     63 CB        -76.7843   29.5250  -75.3503 C.3       2 UNK        -0.1926 
     64 N         -78.9590   28.7461  -74.5595 N.am      2 UNK        -0.4687 
     65 C         -79.9759   27.9665  -74.1627 C.2       1 UNK         0.5165 
     66 O         -79.9099   26.7364  -74.0830 O.2       1 UNK        -0.5079 
     67 H67       -85.4629   27.0228  -73.9093 H         1 UNK         0.0900 
     68 H68       -85.0270   26.9435  -75.6190 H         1 UNK         0.0900 
     69 H69       -84.1654   25.9514  -74.4406 H         1 UNK         0.0900 
     70 H70       -82.1112   26.7708  -73.9826 H         1 UNK         0.2959 
     71 H71       -81.3955   29.4826  -74.5796 H         1 UNK         0.1079 
     72 H72       -82.1334   30.0623  -72.3944 H         1 UNK         0.0837 
     73 H73       -80.4139   29.8997  -72.2470 H         1 UNK         0.0837 
     74 H74       -80.4255   28.0333  -68.9563 H         1 UNK         0.0685 
     75 H75       -80.2406   29.6078  -69.6901 H         1 UNK         0.0685 
     76 H76       -79.5658   26.1972  -71.1603 H         1 UNK         0.1434 
     77 H77       -75.3986   26.9900  -71.7419 H         1 UNK         0.1329 
     78 H78       -77.8785   29.9053  -69.8211 H         1 UNK         0.1335 
     79 H79       -74.4157   28.8927  -70.3802 H         1 UNK         0.0680 
     80 H80       -75.4613   30.1799  -69.8197 H         1 UNK         0.0680 
     81 H81       -74.0949   32.2097  -70.9969 H         1 UNK         0.1032 
     82 H82       -72.9281   30.9185  -71.1494 H         1 UNK         0.1032 
     83 H83       -73.8418   32.7001  -73.4719 H         1 UNK         0.0461 
     84 H84       -73.4820   34.7565  -72.4874 H         1 UNK         0.3453 
     85 H85       -71.9029   35.2529  -71.9382 H         1 UNK         0.3453 
     86 H86       -72.3008   30.3087  -73.4916 H         1 UNK         0.2984 
     87 H87       -71.3671   30.5486  -76.8509 H         1 UNK         0.0554 
     88 H88       -69.2988   31.5937  -75.9526 H         1 UNK         0.0847 
     89 H89       -69.0682   29.8689  -76.1794 H         1 UNK         0.0847 
     90 H90       -69.3274   30.5224  -74.5605 H         1 UNK         0.0847 
     91 H91       -70.9323   28.6458  -74.6740 H         1 UNK         0.3141 
     92 H92       -71.9410   26.6017  -74.9211 H         1 UNK         0.0743 
     93 H93       -74.6066   27.7417  -73.9260 H         1 UNK         0.0784 
     94 H94       -73.7815   26.3182  -73.2898 H         1 UNK         0.0784 
     95 H95       -73.0627   27.9073  -73.1024 H         1 UNK         0.0784 
     96 H96       -74.7150   26.2972  -75.8822 H         1 UNK         0.3213 
     97 H97       -75.0594   24.4245  -77.0903 H         1 UNK         0.0855 
     98 H98       -73.8110   25.4793  -79.6892 H         1 UNK         0.0814 
     99 H99       -75.1065   26.2568  -78.7913 H         1 UNK         0.0814 
    100 H100      -75.3873   24.6998  -79.5556 H         1 UNK         0.0814 
    101 H101      -72.4997   23.4792  -78.1012 H         1 UNK         0.3105 
    102 H102      -75.9946   22.4165  -78.7249 H         1 UNK         0.0547 
    103 H103      -76.9154   20.1695  -78.2412 H         1 UNK         0.0837 
    104 H104      -75.3675   19.6469  -77.5792 H         1 UNK         0.0837 
    105 H105      -75.5113   20.0420  -79.2868 H         1 UNK         0.0837 
    106 H106      -76.8533   22.7575  -76.7346 H         1 UNK         0.3020 
    107 H107      -76.4979   21.6929  -73.5480 H         1 UNK         0.1245 
    108 H108      -75.2059   24.4158  -74.1506 H         1 UNK         0.0781 
    109 H109      -74.3827   23.1087  -73.3510 H         1 UNK         0.0781 
    110 H110      -78.2905   24.6118  -72.3164 H         1 UNK         0.0836 
    111 H111      -77.2400   25.4949  -73.3908 H         1 UNK         0.0836 
    112 H112      -77.5179   24.1048  -74.8874 H         1 UNK         0.3022 
    113 H113      -80.4027   22.6860  -76.1065 H         1 UNK         0.0747 
    114 H114      -81.7570   24.1721  -74.6247 H         1 UNK         0.0793 
    115 H115      -81.2707   22.7084  -73.7859 H         1 UNK         0.0793 
    116 H116      -80.4416   24.2196  -73.4513 H         1 UNK         0.0793 
    117 H117      -79.7111   25.4170  -75.5459 H         1 UNK         0.3047 
    118 H118      -77.5331   25.9054  -78.2888 H         1 UNK         0.0822 
    119 H119      -79.2849   27.3079  -79.3485 H         1 UNK         0.0807 
    120 H120      -80.5409   26.4929  -78.4144 H         1 UNK         0.0807 
    121 H121      -79.6228   25.6082  -79.6252 H         1 UNK         0.0807 
    122 H122      -79.1353   27.7560  -76.8091 H         1 UNK         0.2946 
    123 H123      -77.1467   27.9736  -73.9187 H         1 UNK         0.1144 
    124 H124      -76.8048   30.3390  -74.6260 H         1 UNK         0.0793 
    125 H125      -77.1687   29.9080  -76.2964 H         1 UNK         0.0793 
    126 H126      -75.7382   29.2640  -75.5060 H         1 UNK         0.0793 
    127 H127      -79.1164   29.7426  -74.6078 H         1 UNK         0.2896 
@<TRIPOS>BOND
     1    1    2 1    
     2    1   67 1    
     3    1   68 1    
     4    1   69 1    
     5    2    3 2    
     6    2    4 am   BACKBONE|DICT|INTERRES
     7    4    5 1    
     8    4   70 1    
     9    5    6 1    
    10    5   65 1    
    11    5   71 1    
    12    6    7 1    
    13    6   72 1    
    14    6   73 1    
    15    7    8 1    
    16    8    9 1    
    17    8   74 1    
    18    8   75 1    
    19    9   10 ar   
    20    9   14 ar   
    21   10   11 ar   
    22   10   76 1    
    23   11   12 ar   
    24   11   48 1    
    25   12   13 ar   
    26   12   77 1    
    27   13   14 ar   
    28   13   15 1    
    29   14   78 1    
    30   15   16 1    
    31   15   79 1    
    32   15   80 1    
    33   16   17 1    
    34   17   18 1    
    35   17   81 1    
    36   17   82 1    
    37   18   19 1    
    38   18   22 1    
    39   18   83 1    
    40   19   20 am   BACKBONE|DICT|INTERRES
    41   19   21 2    
    42   20   84 1    
    43   20   85 1    
    44   22   23 am   BACKBONE|DICT|INTERRES
    45   22   86 1    
    46   23   24 2    
    47   23   25 1    
    48   25   26 1    
    49   25   27 1    
    50   25   87 1    
    51   26   88 1    
    52   26   89 1    
    53   26   90 1    
    54   27   28 am   BACKBONE|DICT|INTERRES
    55   27   91 1    
    56   28   29 2    
    57   28   30 1    
    58   30   31 1    
    59   30   32 1    
    60   30   92 1    
    61   31   93 1    
    62   31   94 1    
    63   31   95 1    
    64   32   33 am   BACKBONE|DICT|INTERRES
    65   32   96 1    
    66   33   34 2    
    67   33   35 1    
    68   35   36 1    
    69   35   37 1    
    70   35   97 1    
    71   36   98 1    
    72   36   99 1    
    73   36  100 1    
    74   37   38 am   BACKBONE|DICT|INTERRES
    75   37  101 1    
    76   38   39 2    
    77   38   40 1    
    78   40   41 1    
    79   40   42 1    
    80   40  102 1    
    81   41  103 1    
    82   41  104 1    
    83   41  105 1    
    84   42   43 am   BACKBONE|DICT|INTERRES
    85   42  106 1    
    86   43   44 2    
    87   43   45 1    
    88   45   46 1    
    89   45   49 1    
    90   45  107 1    
    91   46   47 1    
    92   46  108 1    
    93   46  109 1    
    94   47   48 1    
    95   48  110 1    
    96   48  111 1    
    97   49   50 am   BACKBONE|DICT|INTERRES
    98   49  112 1    
    99   50   51 2    
   100   50   52 1    
   101   52   53 1    
   102   52   54 1    
   103   52  113 1    
   104   53  114 1    
   105   53  115 1    
   106   53  116 1    
   107   54   55 am   BACKBONE|DICT|INTERRES
   108   54  117 1    
   109   55   56 2    
   110   55   57 1    
   111   57   58 1    
   112   57   59 1    
   113   57  118 1    
   114   58  119 1    
   115   58  120 1    
   116   58  121 1    
   117   59   60 am   BACKBONE|DICT|INTERRES
   118   59  122 1    
   119   60   61 2    
   120   60   62 1    
   121   62   63 1    
   122   62   64 1    
   123   62  123 1    
   124   63  124 1    
   125   63  125 1    
   126   63  126 1    
   127   64   65 am   BACKBONE|DICT|INTERRES
   128   64  127 1    
   129   65   66 2    
@<TRIPOS>SUBSTRUCTURE
     1 UNK         1 GROUP             0       ****    0 ROOT    
