@<TRIPOS>MOLECULE
3R135
127   129    1
SMALL
USER_CHARGES


@<TRIPOS>ATOM
      1 CA        -77.1468   31.6525  -76.4220 C.3       0 UNK        -0.1998 
      2 C         -77.4789   30.2933  -75.8242 C.2       0 UNK         0.4909 
      3 O         -76.9511   29.2812  -76.2803 O.2       0 UNK        -0.5240 
      4 N         -78.3570   30.2598  -74.8122 N.am      1 UNK        -0.4739 
      5 CA        -78.8862   29.0286  -74.2150 C.3       1 UNK         0.0864 
      6 C6        -79.6795   29.3389  -72.9184 C.3       11 UNK        -0.0881 
      7 S7        -80.2081   27.8424  -72.0078 S.3       11 UNK        -0.2682 
      8 C8        -79.5174   28.1161  -70.3464 C.3       11 UNK         0.0289 
      9 C9        -78.0045   27.9635  -70.3278 C.ar      11 UNK        -0.0687 
     10 C10       -77.4274   26.6934  -70.4120 C.ar      11 UNK        -0.0823 
     11 C11       -76.0384   26.5449  -70.3875 C.ar      11 UNK        -0.0830 
     12 C12       -75.2286   27.6798  -70.2860 C.ar      11 UNK        -0.1021 
     13 C13       -75.7885   28.9587  -70.2031 C.ar      11 UNK        -0.0753 
     14 C14       -77.1837   29.0884  -70.2090 C.ar      11 UNK        -0.0933 
     15 C15       -74.8429   30.1559  -70.0860 C.3       11 UNK         0.0166 
     16 S16       -75.5561   31.7962  -70.4647 S.3       11 UNK        -0.2615 
     17 C17       -76.0701   31.6277  -72.2128 C.3       11 UNK        -0.0865 
     18 CA        -75.0601   32.1961  -73.2418 C.3       10 UNK         0.0862 
     19 C         -74.8653   33.7366  -73.1315 C.2       10 UNK         0.5551 
     20 N         -73.6504   34.2415  -72.9536 N.am      10 UNK        -0.7319 
     21 O         -75.8339   34.4857  -73.2298 O.2       10 UNK        -0.5018 
     22 N         -73.8240   31.4022  -73.2680 N.am      10 UNK        -0.4509 
     23 C         -73.0543   31.2165  -74.3465 C.2       10 UNK         0.4899 
     24 O         -73.2751   31.7325  -75.4433 O.2       10 UNK        -0.4839 
     25 CA        -71.8209   30.3037  -74.1903 C.3       9 UNK         0.0222 
     26 CB        -71.5780   29.7876  -72.7518 C.3       9 UNK        -0.1966 
     27 N         -71.8547   29.1858  -75.1413 N.am      9 UNK        -0.4218 
     28 C         -72.8021   28.2408  -75.2432 C.2       9 UNK         0.5020 
     29 O         -73.7880   28.1600  -74.5064 O.2       9 UNK        -0.5274 
     30 CA        -72.5643   27.1721  -76.3211 C.3       8 UNK         0.0270 
     31 CB        -71.6812   26.0419  -75.7664 C.3       8 UNK        -0.1976 
     32 N         -73.8319   26.6049  -76.7804 N.am      8 UNK        -0.4313 
     33 C         -74.6034   27.1465  -77.7347 C.2       8 UNK         0.5041 
     34 O         -74.2751   28.1464  -78.3782 O.2       8 UNK        -0.5577 
     35 CA        -75.9528   26.4530  -78.0384 C.3       7 UNK         0.0284 
     36 CB        -76.4697   26.7351  -79.4646 C.3       7 UNK        -0.1958 
     37 N         -75.9546   25.0123  -77.7625 N.am      7 UNK        -0.4454 
     38 C         -75.1434   24.0768  -78.2820 C.2       7 UNK         0.5089 
     39 O         -74.3456   24.2917  -79.1958 O.2       7 UNK        -0.5125 
     40 CA        -75.2172   22.6675  -77.6521 C.3       6 UNK         0.0408 
     41 CB        -73.8646   21.9280  -77.7166 C.3       6 UNK        -0.1791 
     42 N         -75.7419   22.6523  -76.2773 N.am      6 UNK        -0.4762 
     43 C         -75.2611   23.3183  -75.2115 C.2       6 UNK         0.5007 
     44 O         -74.2543   24.0234  -75.2703 O.2       6 UNK        -0.5032 
     45 CA        -76.0625   23.2381  -73.8900 C.3       5 UNK         0.0783 
     46 C46       -76.1007   24.5999  -73.1430 C.3       11 UNK        -0.0857 
     47 S47       -74.6421   24.8429  -72.0721 S.3       11 UNK        -0.2512 
     48 C48       -75.4060   25.1616  -70.4515 C.3       11 UNK         0.0225 
     49 N         -77.4197   22.7513  -74.1507 N.am      5 UNK        -0.4615 
     50 C         -77.9158   21.5665  -73.7713 C.2       4 UNK         0.5053 
     51 O         -77.3096   20.7662  -73.0593 O.2       4 UNK        -0.5105 
     52 CA        -79.3188   21.1923  -74.2942 C.3       4 UNK         0.0263 
     53 CB        -80.3845   21.5035  -73.2309 C.3       4 UNK        -0.1981 
     54 N         -79.6820   21.8646  -75.5471 N.am      4 UNK        -0.4224 
     55 C         -79.0358   21.7263  -76.7146 C.2       3 UNK         0.4895 
     56 O         -78.1186   20.9255  -76.8919 O.2       3 UNK        -0.5091 
     57 CA        -79.4149   22.6899  -77.8560 C.3       3 UNK         0.0250 
     58 CB        -80.3566   21.9953  -78.8521 C.3       3 UNK        -0.1996 
     59 N         -80.0212   23.9534  -77.4150 N.am      3 UNK        -0.4254 
     60 C         -79.4580   24.8465  -76.5885 C.2       2 UNK         0.5004 
     61 O         -78.3362   24.7071  -76.0882 O.2       2 UNK        -0.5226 
     62 CA        -80.3159   26.0632  -76.2235 C.3       2 UNK         0.0269 
     63 CB        -81.5997   25.6416  -75.4792 C.3       2 UNK        -0.1926 
     64 N         -79.5424   26.9633  -75.3740 N.am      2 UNK        -0.4687 
     65 C         -79.7591   28.2757  -75.2449 C.2       1 UNK         0.5165 
     66 O         -80.6244   28.8915  -75.8741 O.2       1 UNK        -0.5079 
     67 H67       -77.4973   32.4714  -75.7940 H         1 UNK         0.0900 
     68 H68       -77.6106   31.7511  -77.4029 H         1 UNK         0.0900 
     69 H69       -76.0688   31.7557  -76.5465 H         1 UNK         0.0900 
     70 H70       -78.7969   31.1173  -74.5111 H         1 UNK         0.2959 
     71 H71       -78.0317   28.4004  -73.9510 H         1 UNK         0.1079 
     72 H72       -79.0711   29.9587  -72.2589 H         1 UNK         0.0837 
     73 H73       -80.5678   29.9323  -73.1439 H         1 UNK         0.0837 
     74 H74       -79.8188   29.1004  -69.9844 H         1 UNK         0.0685 
     75 H75       -79.9584   27.3919  -69.6599 H         1 UNK         0.0685 
     76 H76       -78.0639   25.8229  -70.4945 H         1 UNK         0.1434 
     77 H77       -74.1533   27.5628  -70.2727 H         1 UNK         0.1329 
     78 H78       -77.6411   30.0636  -70.1255 H         1 UNK         0.1335 
     79 H79       -74.4587   30.1845  -69.0655 H         1 UNK         0.0680 
     80 H80       -73.9787   29.9996  -70.7310 H         1 UNK         0.0680 
     81 H81       -77.0342   32.1268  -72.3256 H         1 UNK         0.1032 
     82 H82       -76.2654   30.5790  -72.4418 H         1 UNK         0.1032 
     83 H83       -75.5305   32.0589  -74.2141 H         1 UNK         0.0461 
     84 H84       -72.8521   33.6326  -72.8777 H         1 UNK         0.3453 
     85 H85       -73.5336   35.2406  -72.8905 H         1 UNK         0.3453 
     86 H86       -73.5663   30.9564  -72.4017 H         1 UNK         0.2984 
     87 H87       -70.9601   30.9145  -74.4661 H         1 UNK         0.0554 
     88 H88       -70.6552   29.2097  -72.6986 H         1 UNK         0.0847 
     89 H89       -72.3841   29.1416  -72.4023 H         1 UNK         0.0847 
     90 H90       -71.4736   30.6109  -72.0439 H         1 UNK         0.0847 
     91 H91       -71.0978   29.1685  -75.8108 H         1 UNK         0.3141 
     92 H92       -72.0494   27.6281  -77.1695 H         1 UNK         0.0743 
     93 H93       -72.1147   25.5966  -74.8696 H         1 UNK         0.0784 
     94 H94       -71.5432   25.2476  -76.5005 H         1 UNK         0.0784 
     95 H95       -70.6916   26.4132  -75.4979 H         1 UNK         0.0784 
     96 H96       -74.1612   25.7872  -76.2761 H         1 UNK         0.3213 
     97 H97       -76.6713   26.8840  -77.3401 H         1 UNK         0.0855 
     98 H98       -76.6120   27.8048  -79.6223 H         1 UNK         0.0814 
     99 H99       -77.4310   26.2526  -79.6405 H         1 UNK         0.0814 
    100 H100      -75.7710   26.3836  -80.2242 H         1 UNK         0.0814 
    101 H101      -76.6021   24.7221  -77.0350 H         1 UNK         0.3105 
    102 H102      -75.9303   22.1051  -78.2559 H         1 UNK         0.0547 
    103 H103      -73.5332   21.8037  -78.7482 H         1 UNK         0.0837 
    104 H104      -73.0814   22.4719  -77.1876 H         1 UNK         0.0837 
    105 H105      -73.9357   20.9319  -77.2801 H         1 UNK         0.0837 
    106 H106      -76.5731   22.0850  -76.1497 H         1 UNK         0.3020 
    107 H107      -75.5357   22.5128  -73.2658 H         1 UNK         0.1245 
    108 H108      -76.9931   24.6526  -72.5183 H         1 UNK         0.0781 
    109 H109      -76.1834   25.4418  -73.8340 H         1 UNK         0.0781 
    110 H110      -74.6376   25.0841  -69.6809 H         1 UNK         0.0836 
    111 H111      -76.1367   24.3822  -70.2290 H         1 UNK         0.0836 
    112 H112      -77.9742   23.3492  -74.7570 H         1 UNK         0.3022 
    113 H113      -79.3212   20.1164  -74.4814 H         1 UNK         0.0747 
    114 H114      -81.3725   21.1694  -73.5482 H         1 UNK         0.0793 
    115 H115      -80.1592   20.9950  -72.2923 H         1 UNK         0.0793 
    116 H116      -80.4421   22.5717  -73.0168 H         1 UNK         0.0793 
    117 H117      -80.4313   22.5388  -75.4977 H         1 UNK         0.3047 
    118 H118      -78.4906   22.9420  -78.3801 H         1 UNK         0.0822 
    119 H119      -80.5498   22.6239  -79.7216 H         1 UNK         0.0807 
    120 H120      -81.3157   21.7466  -78.3960 H         1 UNK         0.0807 
    121 H121      -79.9199   21.0653  -79.2196 H         1 UNK         0.0807 
    122 H122      -80.9452   24.1483  -77.7739 H         1 UNK         0.2946 
    123 H123      -80.5763   26.5762  -77.1524 H         1 UNK         0.1144 
    124 H124      -82.2278   24.9934  -76.0909 H         1 UNK         0.0793 
    125 H125      -82.2062   26.5078  -75.2139 H         1 UNK         0.0793 
    126 H126      -81.3712   25.1053  -74.5570 H         1 UNK         0.0793 
    127 H127      -78.7746   26.5211  -74.8853 H         1 UNK         0.2896 
@<TRIPOS>BOND
     1    1    2 1    
     2    1   67 1    
     3    1   68 1    
     4    1   69 1    
     5    2    3 2    
     6    2    4 am   BACKBONE|DICT|INTERRES
     7    4    5 1    
     8    4   70 1    
     9    5    6 1    
    10    5   65 1    
    11    5   71 1    
    12    6    7 1    
    13    6   72 1    
    14    6   73 1    
    15    7    8 1    
    16    8    9 1    
    17    8   74 1    
    18    8   75 1    
    19    9   10 ar   
    20    9   14 ar   
    21   10   11 ar   
    22   10   76 1    
    23   11   12 ar   
    24   11   48 1    
    25   12   13 ar   
    26   12   77 1    
    27   13   14 ar   
    28   13   15 1    
    29   14   78 1    
    30   15   16 1    
    31   15   79 1    
    32   15   80 1    
    33   16   17 1    
    34   17   18 1    
    35   17   81 1    
    36   17   82 1    
    37   18   19 1    
    38   18   22 1    
    39   18   83 1    
    40   19   20 am   BACKBONE|DICT|INTERRES
    41   19   21 2    
    42   20   84 1    
    43   20   85 1    
    44   22   23 am   BACKBONE|DICT|INTERRES
    45   22   86 1    
    46   23   24 2    
    47   23   25 1    
    48   25   26 1    
    49   25   27 1    
    50   25   87 1    
    51   26   88 1    
    52   26   89 1    
    53   26   90 1    
    54   27   28 am   BACKBONE|DICT|INTERRES
    55   27   91 1    
    56   28   29 2    
    57   28   30 1    
    58   30   31 1    
    59   30   32 1    
    60   30   92 1    
    61   31   93 1    
    62   31   94 1    
    63   31   95 1    
    64   32   33 am   BACKBONE|DICT|INTERRES
    65   32   96 1    
    66   33   34 2    
    67   33   35 1    
    68   35   36 1    
    69   35   37 1    
    70   35   97 1    
    71   36   98 1    
    72   36   99 1    
    73   36  100 1    
    74   37   38 am   BACKBONE|DICT|INTERRES
    75   37  101 1    
    76   38   39 2    
    77   38   40 1    
    78   40   41 1    
    79   40   42 1    
    80   40  102 1    
    81   41  103 1    
    82   41  104 1    
    83   41  105 1    
    84   42   43 am   BACKBONE|DICT|INTERRES
    85   42  106 1    
    86   43   44 2    
    87   43   45 1    
    88   45   46 1    
    89   45   49 1    
    90   45  107 1    
    91   46   47 1    
    92   46  108 1    
    93   46  109 1    
    94   47   48 1    
    95   48  110 1    
    96   48  111 1    
    97   49   50 am   BACKBONE|DICT|INTERRES
    98   49  112 1    
    99   50   51 2    
   100   50   52 1    
   101   52   53 1    
   102   52   54 1    
   103   52  113 1    
   104   53  114 1    
   105   53  115 1    
   106   53  116 1    
   107   54   55 am   BACKBONE|DICT|INTERRES
   108   54  117 1    
   109   55   56 2    
   110   55   57 1    
   111   57   58 1    
   112   57   59 1    
   113   57  118 1    
   114   58  119 1    
   115   58  120 1    
   116   58  121 1    
   117   59   60 am   BACKBONE|DICT|INTERRES
   118   59  122 1    
   119   60   61 2    
   120   60   62 1    
   121   62   63 1    
   122   62   64 1    
   123   62  123 1    
   124   63  124 1    
   125   63  125 1    
   126   63  126 1    
   127   64   65 am   BACKBONE|DICT|INTERRES
   128   64  127 1    
   129   65   66 2    
@<TRIPOS>SUBSTRUCTURE
     1 UNK         1 GROUP             0       ****    0 ROOT    
