@<TRIPOS>MOLECULE
3R135
127   129    1
SMALL
USER_CHARGES


@<TRIPOS>ATOM
      1 CA        -85.5444   29.6639  -74.4999 C.3       0 UNK        -0.1998 
      2 C         -84.2217   28.9750  -74.8012 C.2       0 UNK         0.4909 
      3 O         -83.9789   28.5895  -75.9458 O.2       0 UNK        -0.5240 
      4 N         -83.3620   28.8265  -73.7859 N.am      1 UNK        -0.4739 
      5 CA        -82.0636   28.1481  -73.8788 C.3       1 UNK         0.0864 
      6 C6        -81.1523   28.4839  -72.6704 C.3       11 UNK        -0.0881 
      7 S7        -80.8163   30.2760  -72.5284 S.3       11 UNK        -0.2682 
      8 C8        -79.9760   30.3874  -70.9134 C.3       11 UNK         0.0289 
      9 C9        -78.5869   29.7704  -70.9668 C.ar      11 UNK        -0.0687 
     10 C10       -78.4100   28.4274  -70.6269 C.ar      11 UNK        -0.0823 
     11 C11       -77.1629   27.8175  -70.7790 C.ar      11 UNK        -0.0830 
     12 C12       -76.0744   28.5747  -71.2194 C.ar      11 UNK        -0.1021 
     13 C13       -76.2275   29.9310  -71.5215 C.ar      11 UNK        -0.0753 
     14 C14       -77.4888   30.5243  -71.3968 C.ar      11 UNK        -0.0933 
     15 C15       -75.0355   30.7302  -72.0287 C.3       11 UNK         0.0166 
     16 S16       -73.7172   30.8130  -70.7775 S.3       11 UNK        -0.2615 
     17 C17       -72.3546   31.5845  -71.7206 C.3       11 UNK        -0.0865 
     18 CA        -71.3594   30.5858  -72.3828 C.3       10 UNK         0.0862 
     19 C         -70.7214   29.5671  -71.3996 C.2       10 UNK         0.5551 
     20 N         -69.9493   30.0408  -70.4312 N.am      10 UNK        -0.7319 
     21 O         -70.9182   28.3568  -71.5036 O.2       10 UNK        -0.5018 
     22 N         -71.9362   29.9064  -73.5473 N.am      10 UNK        -0.4509 
     23 C         -72.0345   30.4257  -74.7754 C.2       10 UNK         0.4899 
     24 O         -71.7162   31.5853  -75.0444 O.2       10 UNK        -0.4839 
     25 CA        -72.5955   29.5184  -75.8906 C.3       9 UNK         0.0222 
     26 CB        -71.9958   29.8493  -77.2737 C.3       9 UNK        -0.1966 
     27 N         -72.5024   28.0780  -75.6191 N.am      9 UNK        -0.4218 
     28 C         -71.3959   27.3379  -75.4491 C.2       9 UNK         0.5020 
     29 O         -70.2504   27.7906  -75.4454 O.2       9 UNK        -0.5274 
     30 CA        -71.6100   25.8255  -75.2604 C.3       8 UNK         0.0270 
     31 CB        -72.1017   25.5151  -73.8366 C.3       8 UNK        -0.1976 
     32 N         -72.5418   25.2620  -76.2425 N.am      8 UNK        -0.4313 
     33 C         -72.2940   25.1644  -77.5577 C.2       8 UNK         0.5041 
     34 O         -71.2188   25.4667  -78.0774 O.2       8 UNK        -0.5577 
     35 CA        -73.4384   24.6545  -78.4517 C.3       7 UNK         0.0284 
     36 CB        -73.5138   23.1193  -78.4297 C.3       7 UNK        -0.1958 
     37 N         -74.7365   25.2245  -78.0839 N.am      7 UNK        -0.4454 
     38 C         -75.0649   26.5161  -78.2349 C.2       7 UNK         0.5089 
     39 O         -74.3436   27.3481  -78.7847 O.2       7 UNK        -0.5125 
     40 CA        -76.4160   26.9666  -77.6532 C.3       6 UNK         0.0408 
     41 CB        -77.5469   26.7454  -78.6695 C.3       6 UNK        -0.1791 
     42 N         -76.7494   26.2969  -76.3942 N.am      6 UNK        -0.4762 
     43 C         -76.0547   26.4200  -75.2540 C.2       6 UNK         0.5007 
     44 O         -75.0749   27.1526  -75.1264 O.2       6 UNK        -0.5032 
     45 CA        -76.4936   25.5413  -74.0691 C.3       5 UNK         0.0783 
     46 C46       -77.7040   26.1624  -73.3432 C.3       11 UNK        -0.0857 
     47 S47       -78.0404   25.3572  -71.7367 S.3       11 UNK        -0.2512 
     48 C48       -77.0148   26.3187  -70.5691 C.3       11 UNK         0.0225 
     49 N         -76.7577   24.1662  -74.4922 N.am      5 UNK        -0.4615 
     50 C         -75.8356   23.3208  -74.9664 C.2       4 UNK         0.5053 
     51 O         -74.6394   23.5942  -75.0602 O.2       4 UNK        -0.5105 
     52 CA        -76.3500   21.9581  -75.4579 C.3       4 UNK         0.0263 
     53 CB        -76.4654   20.9702  -74.2865 C.3       4 UNK        -0.1981 
     54 N         -77.6420   22.0627  -76.1446 N.am      4 UNK        -0.4224 
     55 C         -77.8227   22.6887  -77.3170 C.2       3 UNK         0.4895 
     56 O         -76.9122   23.2074  -77.9630 O.2       3 UNK        -0.5091 
     57 CA        -79.2698   22.7933  -77.8298 C.3       3 UNK         0.0250 
     58 CB        -79.7064   21.4809  -78.5005 C.3       3 UNK        -0.1996 
     59 N         -80.2341   23.1641  -76.7854 N.am      3 UNK        -0.4254 
     60 C         -80.2086   24.3256  -76.1179 C.2       2 UNK         0.5004 
     61 O         -79.3529   25.1957  -76.2976 O.2       2 UNK        -0.5226 
     62 CA        -81.2864   24.5462  -75.0490 C.3       2 UNK         0.0269 
     63 CB        -80.9928   23.6946  -73.7976 C.3       2 UNK        -0.1926 
     64 N         -81.3038   25.9717  -74.7177 N.am      2 UNK        -0.4687 
     65 C         -82.2487   26.6206  -74.0293 C.2       1 UNK         0.5165 
     66 O         -83.2230   26.0631  -73.5158 O.2       1 UNK        -0.5079 
     67 H67       -85.6168   29.9684  -73.4559 H         1 UNK         0.0900 
     68 H68       -85.6547   30.5527  -75.1203 H         1 UNK         0.0900 
     69 H69       -86.3746   28.9919  -74.7154 H         1 UNK         0.0900 
     70 H70       -83.6157   29.1546  -72.8653 H         1 UNK         0.2959 
     71 H71       -81.5700   28.5097  -74.7841 H         1 UNK         0.1079 
     72 H72       -80.1953   27.9685  -72.7684 H         1 UNK         0.0837 
     73 H73       -81.6009   28.1308  -71.7397 H         1 UNK         0.0837 
     74 H74       -80.5847   29.9036  -70.1479 H         1 UNK         0.0685 
     75 H75       -79.9013   31.4372  -70.6258 H         1 UNK         0.0685 
     76 H76       -79.2578   27.8355  -70.3095 H         1 UNK         0.1434 
     77 H77       -75.1079   28.1073  -71.3520 H         1 UNK         0.1329 
     78 H78       -77.6246   31.5644  -71.6602 H         1 UNK         0.1335 
     79 H79       -75.3316   31.7433  -72.3050 H         1 UNK         0.0680 
     80 H80       -74.6553   30.2560  -72.9341 H         1 UNK         0.0680 
     81 H81       -71.8110   32.2328  -71.0319 H         1 UNK         0.1032 
     82 H82       -72.7694   32.2581  -72.4719 H         1 UNK         0.1032 
     83 H83       -70.5157   31.1703  -72.7559 H         1 UNK         0.0461 
     84 H84       -69.5290   29.3941  -69.7821 H         1 UNK         0.3453 
     85 H85       -69.7773   31.0291  -70.3340 H         1 UNK         0.3453 
     86 H86       -72.1663   28.9336  -73.3964 H         1 UNK         0.2984 
     87 H87       -73.6635   29.7353  -75.9384 H         1 UNK         0.0554 
     88 H88       -72.2034   30.8817  -77.5571 H         1 UNK         0.0847 
     89 H89       -72.4175   29.2120  -78.0509 H         1 UNK         0.0847 
     90 H90       -70.9132   29.7198  -77.2858 H         1 UNK         0.0847 
     91 H91       -73.4044   27.6072  -75.5390 H         1 UNK         0.3141 
     92 H92       -70.6444   25.3342  -75.3976 H         1 UNK         0.0743 
     93 H93       -71.4105   25.9102  -73.0905 H         1 UNK         0.0784 
     94 H94       -73.0801   25.9531  -73.6381 H         1 UNK         0.0784 
     95 H95       -72.1790   24.4404  -73.6706 H         1 UNK         0.0784 
     96 H96       -73.4261   24.9082  -75.8877 H         1 UNK         0.3213 
     97 H97       -73.2192   24.9644  -79.4759 H         1 UNK         0.0855 
     98 H98       -73.7298   22.7365  -77.4326 H         1 UNK         0.0814 
     99 H99       -72.5681   22.6794  -78.7490 H         1 UNK         0.0814 
    100 H100      -74.2873   22.7507  -79.1037 H         1 UNK         0.0814 
    101 H101      -75.4304   24.5898  -77.7013 H         1 UNK         0.3105 
    102 H102      -76.3476   28.0372  -77.4492 H         1 UNK         0.0547 
    103 H103      -77.3354   27.2601  -79.6075 H         1 UNK         0.0837 
    104 H104      -78.4964   27.1286  -78.2954 H         1 UNK         0.0837 
    105 H105      -77.6819   25.6883  -78.8996 H         1 UNK         0.0837 
    106 H106      -77.5852   25.7147  -76.3976 H         1 UNK         0.3020 
    107 H107      -75.6529   25.5175  -73.3719 H         1 UNK         0.1245 
    108 H108      -78.6009   26.0649  -73.9524 H         1 UNK         0.0781 
    109 H109      -77.5746   27.2366  -73.2161 H         1 UNK         0.0781 
    110 H110      -75.9738   26.0117  -70.6813 H         1 UNK         0.0836 
    111 H111      -77.3017   26.0651  -69.5477 H         1 UNK         0.0836 
    112 H112      -77.7197   23.8670  -74.4628 H         1 UNK         0.3022 
    113 H113      -75.6199   21.5638  -76.1680 H         1 UNK         0.0747 
    114 H114      -76.7578   19.9783  -74.6315 H         1 UNK         0.0793 
    115 H115      -75.5089   20.8635  -73.7726 H         1 UNK         0.0793 
    116 H116      -77.1972   21.2990  -73.5474 H         1 UNK         0.0793 
    117 H117      -78.4440   21.6578  -75.6843 H         1 UNK         0.3047 
    118 H118      -79.2876   23.5806  -78.5868 H         1 UNK         0.0822 
    119 H119      -80.6893   21.5794  -78.9618 H         1 UNK         0.0807 
    120 H120      -79.7501   20.6547  -77.7898 H         1 UNK         0.0807 
    121 H121      -79.0086   21.1957  -79.2893 H         1 UNK         0.0807 
    122 H122      -80.9641   22.4960  -76.5819 H         1 UNK         0.2946 
    123 H123      -82.2564   24.2707  -75.4689 H         1 UNK         0.1144 
    124 H124      -80.0217   23.9337  -73.3663 H         1 UNK         0.0793 
    125 H125      -80.9899   22.6304  -74.0356 H         1 UNK         0.0793 
    126 H126      -81.7447   23.8426  -73.0228 H         1 UNK         0.0793 
    127 H127      -80.5411   26.4845  -75.1449 H         1 UNK         0.2896 
@<TRIPOS>BOND
     1    1    2 1    
     2    1   67 1    
     3    1   68 1    
     4    1   69 1    
     5    2    3 2    
     6    2    4 am   BACKBONE|DICT|INTERRES
     7    4    5 1    
     8    4   70 1    
     9    5    6 1    
    10    5   65 1    
    11    5   71 1    
    12    6    7 1    
    13    6   72 1    
    14    6   73 1    
    15    7    8 1    
    16    8    9 1    
    17    8   74 1    
    18    8   75 1    
    19    9   10 ar   
    20    9   14 ar   
    21   10   11 ar   
    22   10   76 1    
    23   11   12 ar   
    24   11   48 1    
    25   12   13 ar   
    26   12   77 1    
    27   13   14 ar   
    28   13   15 1    
    29   14   78 1    
    30   15   16 1    
    31   15   79 1    
    32   15   80 1    
    33   16   17 1    
    34   17   18 1    
    35   17   81 1    
    36   17   82 1    
    37   18   19 1    
    38   18   22 1    
    39   18   83 1    
    40   19   20 am   BACKBONE|DICT|INTERRES
    41   19   21 2    
    42   20   84 1    
    43   20   85 1    
    44   22   23 am   BACKBONE|DICT|INTERRES
    45   22   86 1    
    46   23   24 2    
    47   23   25 1    
    48   25   26 1    
    49   25   27 1    
    50   25   87 1    
    51   26   88 1    
    52   26   89 1    
    53   26   90 1    
    54   27   28 am   BACKBONE|DICT|INTERRES
    55   27   91 1    
    56   28   29 2    
    57   28   30 1    
    58   30   31 1    
    59   30   32 1    
    60   30   92 1    
    61   31   93 1    
    62   31   94 1    
    63   31   95 1    
    64   32   33 am   BACKBONE|DICT|INTERRES
    65   32   96 1    
    66   33   34 2    
    67   33   35 1    
    68   35   36 1    
    69   35   37 1    
    70   35   97 1    
    71   36   98 1    
    72   36   99 1    
    73   36  100 1    
    74   37   38 am   BACKBONE|DICT|INTERRES
    75   37  101 1    
    76   38   39 2    
    77   38   40 1    
    78   40   41 1    
    79   40   42 1    
    80   40  102 1    
    81   41  103 1    
    82   41  104 1    
    83   41  105 1    
    84   42   43 am   BACKBONE|DICT|INTERRES
    85   42  106 1    
    86   43   44 2    
    87   43   45 1    
    88   45   46 1    
    89   45   49 1    
    90   45  107 1    
    91   46   47 1    
    92   46  108 1    
    93   46  109 1    
    94   47   48 1    
    95   48  110 1    
    96   48  111 1    
    97   49   50 am   BACKBONE|DICT|INTERRES
    98   49  112 1    
    99   50   51 2    
   100   50   52 1    
   101   52   53 1    
   102   52   54 1    
   103   52  113 1    
   104   53  114 1    
   105   53  115 1    
   106   53  116 1    
   107   54   55 am   BACKBONE|DICT|INTERRES
   108   54  117 1    
   109   55   56 2    
   110   55   57 1    
   111   57   58 1    
   112   57   59 1    
   113   57  118 1    
   114   58  119 1    
   115   58  120 1    
   116   58  121 1    
   117   59   60 am   BACKBONE|DICT|INTERRES
   118   59  122 1    
   119   60   61 2    
   120   60   62 1    
   121   62   63 1    
   122   62   64 1    
   123   62  123 1    
   124   63  124 1    
   125   63  125 1    
   126   63  126 1    
   127   64   65 am   BACKBONE|DICT|INTERRES
   128   64  127 1    
   129   65   66 2    
@<TRIPOS>SUBSTRUCTURE
     1 UNK         1 GROUP             0       ****    0 ROOT    
