@<TRIPOS>MOLECULE
3R135
127   129    1
SMALL
USER_CHARGES


@<TRIPOS>ATOM
      1 CA        -83.1476   27.7042  -70.2012 C.3       0 UNK        -0.1998 
      2 C         -82.3911   27.4642  -71.4985 C.2       0 UNK         0.4909 
      3 O         -81.3066   26.8828  -71.4683 O.2       0 UNK        -0.5240 
      4 N         -82.9600   27.9077  -72.6290 N.am      1 UNK        -0.4739 
      5 CA        -82.4492   27.8308  -74.0094 C.3       1 UNK         0.0864 
      6 C6        -81.0923   28.5485  -74.2344 C.3       11 UNK        -0.0881 
      7 S7        -81.1761   30.3497  -73.9476 S.3       11 UNK        -0.2682 
      8 C8        -80.3355   30.5474  -72.3410 C.3       11 UNK         0.0289 
      9 C9        -78.9272   29.9664  -72.3321 C.ar      11 UNK        -0.0687 
     10 C10       -78.6147   28.9041  -71.4798 C.ar      11 UNK        -0.0823 
     11 C11       -77.3330   28.3473  -71.4669 C.ar      11 UNK        -0.0830 
     12 C12       -76.3516   28.8768  -72.3137 C.ar      11 UNK        -0.1021 
     13 C13       -76.6510   29.9405  -73.1708 C.ar      11 UNK        -0.0753 
     14 C14       -77.9387   30.4835  -73.1730 C.ar      11 UNK        -0.0933 
     15 C15       -75.5949   30.4942  -74.1131 C.3       11 UNK         0.0166 
     16 S16       -74.8586   32.0330  -73.4746 S.3       11 UNK        -0.2615 
     17 C17       -73.6720   31.4109  -72.2301 C.3       11 UNK        -0.0865 
     18 CA        -72.1931   31.5645  -72.6936 C.3       10 UNK         0.0862 
     19 C         -71.1661   31.2688  -71.5570 C.2       10 UNK         0.5551 
     20 N         -69.9840   30.7454  -71.8576 N.am      10 UNK        -0.7319 
     21 O         -71.4264   31.5515  -70.3897 O.2       10 UNK        -0.5018 
     22 N         -71.9318   30.8825  -73.9757 N.am      10 UNK        -0.4509 
     23 C         -71.9758   29.5612  -74.1908 C.2       10 UNK         0.4899 
     24 O         -72.1451   28.7266  -73.2998 O.2       10 UNK        -0.4839 
     25 CA        -71.8744   29.1324  -75.6666 C.3       9 UNK         0.0222 
     26 CB        -70.6111   29.6848  -76.3645 C.3       9 UNK        -0.1966 
     27 N         -72.0041   27.6836  -75.8519 N.am      9 UNK        -0.4218 
     28 C         -71.1248   26.7189  -75.5407 C.2       9 UNK         0.5020 
     29 O         -70.0037   26.9255  -75.0721 O.2       9 UNK        -0.5274 
     30 CA        -71.5545   25.2612  -75.8057 C.3       8 UNK         0.0270 
     31 CB        -71.8569   24.5421  -74.4806 C.3       8 UNK        -0.1976 
     32 N         -72.7079   25.1304  -76.7043 N.am      8 UNK        -0.4313 
     33 C         -72.6894   25.4035  -78.0170 C.2       8 UNK         0.5041 
     34 O         -71.6743   25.7340  -78.6313 O.2       8 UNK        -0.5577 
     35 CA        -74.0272   25.3182  -78.7727 C.3       7 UNK         0.0284 
     36 CB        -74.2790   23.8822  -79.2591 C.3       7 UNK        -0.1958 
     37 N         -75.1740   25.7848  -77.9858 N.am      7 UNK        -0.4454 
     38 C         -75.3566   27.0489  -77.5733 C.2       7 UNK         0.5089 
     39 O         -74.5879   27.9730  -77.8380 O.2       7 UNK        -0.5125 
     40 CA        -76.5717   27.3208  -76.6660 C.3       6 UNK         0.0408 
     41 CB        -77.8682   27.4197  -77.4836 C.3       6 UNK        -0.1791 
     42 N         -76.7242   26.3129  -75.6154 N.am      6 UNK        -0.4762 
     43 C         -75.8103   26.0711  -74.6632 C.2       6 UNK         0.5007 
     44 O         -74.7695   26.7155  -74.5384 O.2       6 UNK        -0.5032 
     45 CA        -76.0639   24.8568  -73.7502 C.3       5 UNK         0.0783 
     46 C46       -76.9475   25.2047  -72.5265 C.3       11 UNK        -0.0857 
     47 S47       -75.9424   25.9046  -71.1744 S.3       11 UNK        -0.2512 
     48 C48       -77.0340   27.2015  -70.5028 C.3       11 UNK         0.0225 
     49 N         -76.5879   23.7201  -74.5121 N.am      5 UNK        -0.4615 
     50 C         -75.8560   22.9992  -75.3731 C.2       4 UNK         0.5053 
     51 O         -74.6662   23.2120  -75.6018 O.2       4 UNK        -0.5105 
     52 CA        -76.5767   21.8723  -76.1305 C.3       4 UNK         0.0263 
     53 CB        -76.6598   20.6049  -75.2651 C.3       4 UNK        -0.1981 
     54 N         -77.9181   22.2555  -76.5738 N.am      4 UNK        -0.4224 
     55 C         -78.1693   23.2131  -77.4775 C.2       3 UNK         0.4895 
     56 O         -77.2961   23.8521  -78.0621 O.2       3 UNK        -0.5091 
     57 CA        -79.6457   23.5480  -77.7399 C.3       3 UNK         0.0250 
     58 CB        -80.2307   22.6095  -78.8072 C.3       3 UNK        -0.1996 
     59 N         -80.4863   23.5146  -76.5376 N.am      3 UNK        -0.4254 
     60 C         -80.2940   24.2733  -75.4497 C.2       2 UNK         0.5004 
     61 O         -79.3291   25.0274  -75.2947 O.2       2 UNK        -0.5226 
     62 CA        -81.3422   24.1562  -74.3323 C.3       2 UNK         0.0269 
     63 CB        -80.7862   23.3371  -73.1567 C.3       2 UNK        -0.1926 
     64 N         -81.7202   25.4848  -73.8551 N.am      2 UNK        -0.4687 
     65 C         -82.3873   26.3963  -74.5725 C.2       1 UNK         0.5165 
     66 O         -82.9260   26.1474  -75.6526 O.2       1 UNK        -0.5079 
     67 H67       -84.0869   28.2315  -70.3665 H         1 UNK         0.0900 
     68 H68       -82.5403   28.2989  -69.5195 H         1 UNK         0.0900 
     69 H69       -83.3717   26.7540  -69.7174 H         1 UNK         0.0900 
     70 H70       -83.8637   28.3543  -72.5556 H         1 UNK         0.2959 
     71 H71       -83.1914   28.3516  -74.6173 H         1 UNK         0.1079 
     72 H72       -80.3088   28.0943  -73.6277 H         1 UNK         0.0837 
     73 H73       -80.7645   28.4183  -75.2679 H         1 UNK         0.0837 
     74 H74       -80.2815   31.6102  -72.1020 H         1 UNK         0.0685 
     75 H75       -80.9499   30.0918  -71.5637 H         1 UNK         0.0685 
     76 H76       -79.3763   28.5051  -70.8242 H         1 UNK         0.1434 
     77 H77       -75.3552   28.4556  -72.3155 H         1 UNK         0.1329 
     78 H78       -78.1754   31.3042  -73.8364 H         1 UNK         0.1335 
     79 H79       -76.0510   30.7018  -75.0822 H         1 UNK         0.0680 
     80 H80       -74.8209   29.7498  -74.3003 H         1 UNK         0.0680 
     81 H81       -73.8904   30.3721  -71.9810 H         1 UNK         0.1032 
     82 H82       -73.8458   31.9774  -71.3136 H         1 UNK         0.1032 
     83 H83       -72.0422   32.6231  -72.9080 H         1 UNK         0.0461 
     84 H84       -69.7628   30.5066  -72.8108 H         1 UNK         0.3453 
     85 H85       -69.3188   30.5669  -71.1219 H         1 UNK         0.3453 
     86 H86       -71.7831   31.4956  -74.7638 H         1 UNK         0.2984 
     87 H87       -72.7434   29.5596  -76.1696 H         1 UNK         0.0554 
     88 H88       -70.5222   29.3018  -77.3813 H         1 UNK         0.0847 
     89 H89       -69.6995   29.4208  -75.8277 H         1 UNK         0.0847 
     90 H90       -70.6387   30.7721  -76.4372 H         1 UNK         0.0847 
     91 H91       -72.9147   27.3798  -76.1731 H         1 UNK         0.3141 
     92 H92       -70.7078   24.7578  -76.2769 H         1 UNK         0.0743 
     93 H93       -72.6970   25.0005  -73.9583 H         1 UNK         0.0784 
     94 H94       -72.0922   23.4901  -74.6422 H         1 UNK         0.0784 
     95 H95       -70.9977   24.5816  -73.8097 H         1 UNK         0.0784 
     96 H96       -73.5673   24.7798  -76.2922 H         1 UNK         0.3213 
     97 H97       -73.9475   25.9633  -79.6503 H         1 UNK         0.0855 
     98 H98       -74.4084   23.1908  -78.4257 H         1 UNK         0.0814 
     99 H99       -73.4429   23.5195  -79.8585 H         1 UNK         0.0814 
    100 H100      -75.1719   23.8257  -79.8820 H         1 UNK         0.0814 
    101 H101      -75.8923   25.0945  -77.7770 H         1 UNK         0.3105 
    102 H102      -76.4112   28.2820  -76.1734 H         1 UNK         0.0547 
    103 H103      -77.7936   28.2040  -78.2378 H         1 UNK         0.0837 
    104 H104      -78.0917   26.4880  -78.0029 H         1 UNK         0.0837 
    105 H105      -78.7201   27.6599  -76.8472 H         1 UNK         0.0837 
    106 H106      -77.5783   25.7596  -75.6225 H         1 UNK         0.3020 
    107 H107      -75.0859   24.5420  -73.3773 H         1 UNK         0.1245 
    108 H108      -77.7665   25.8750  -72.7975 H         1 UNK         0.0781 
    109 H109      -77.4183   24.3039  -72.1300 H         1 UNK         0.0781 
    110 H110      -77.9603   26.7276  -70.1729 H         1 UNK         0.0836 
    111 H111      -76.5672   27.6182  -69.6095 H         1 UNK         0.0836 
    112 H112      -77.5777   23.5381  -74.4347 H         1 UNK         0.3022 
    113 H113      -75.9845   21.6403  -77.0184 H         1 UNK         0.0747 
    114 H114      -77.0919   19.7727  -75.8212 H         1 UNK         0.0793 
    115 H115      -75.6673   20.2922  -74.9373 H         1 UNK         0.0793 
    116 H116      -77.2640   20.7618  -74.3706 H         1 UNK         0.0793 
    117 H117      -78.6997   21.7814  -76.1455 H         1 UNK         0.3047 
    118 H118      -79.6810   24.5673  -78.1298 H         1 UNK         0.0822 
    119 H119      -81.2431   22.9045  -79.0837 H         1 UNK         0.0807 
    120 H120      -80.2634   21.5746  -78.4642 H         1 UNK         0.0807 
    121 H121      -79.6298   22.6322  -79.7177 H         1 UNK         0.0807 
    122 H122      -81.3008   22.9184  -76.5773 H         1 UNK         0.2946 
    123 H123      -82.2358   23.6618  -74.7200 H         1 UNK         0.1144 
    124 H124      -80.4987   22.3348  -73.4766 H         1 UNK         0.0793 
    125 H125      -81.5297   23.2244  -72.3673 H         1 UNK         0.0793 
    126 H126      -79.9051   23.8080  -72.7187 H         1 UNK         0.0793 
    127 H127      -81.3234   25.7966  -72.9714 H         1 UNK         0.2896 
@<TRIPOS>BOND
     1    1    2 1    
     2    1   67 1    
     3    1   68 1    
     4    1   69 1    
     5    2    3 2    
     6    2    4 am   BACKBONE|DICT|INTERRES
     7    4    5 1    
     8    4   70 1    
     9    5    6 1    
    10    5   65 1    
    11    5   71 1    
    12    6    7 1    
    13    6   72 1    
    14    6   73 1    
    15    7    8 1    
    16    8    9 1    
    17    8   74 1    
    18    8   75 1    
    19    9   10 ar   
    20    9   14 ar   
    21   10   11 ar   
    22   10   76 1    
    23   11   12 ar   
    24   11   48 1    
    25   12   13 ar   
    26   12   77 1    
    27   13   14 ar   
    28   13   15 1    
    29   14   78 1    
    30   15   16 1    
    31   15   79 1    
    32   15   80 1    
    33   16   17 1    
    34   17   18 1    
    35   17   81 1    
    36   17   82 1    
    37   18   19 1    
    38   18   22 1    
    39   18   83 1    
    40   19   20 am   BACKBONE|DICT|INTERRES
    41   19   21 2    
    42   20   84 1    
    43   20   85 1    
    44   22   23 am   BACKBONE|DICT|INTERRES
    45   22   86 1    
    46   23   24 2    
    47   23   25 1    
    48   25   26 1    
    49   25   27 1    
    50   25   87 1    
    51   26   88 1    
    52   26   89 1    
    53   26   90 1    
    54   27   28 am   BACKBONE|DICT|INTERRES
    55   27   91 1    
    56   28   29 2    
    57   28   30 1    
    58   30   31 1    
    59   30   32 1    
    60   30   92 1    
    61   31   93 1    
    62   31   94 1    
    63   31   95 1    
    64   32   33 am   BACKBONE|DICT|INTERRES
    65   32   96 1    
    66   33   34 2    
    67   33   35 1    
    68   35   36 1    
    69   35   37 1    
    70   35   97 1    
    71   36   98 1    
    72   36   99 1    
    73   36  100 1    
    74   37   38 am   BACKBONE|DICT|INTERRES
    75   37  101 1    
    76   38   39 2    
    77   38   40 1    
    78   40   41 1    
    79   40   42 1    
    80   40  102 1    
    81   41  103 1    
    82   41  104 1    
    83   41  105 1    
    84   42   43 am   BACKBONE|DICT|INTERRES
    85   42  106 1    
    86   43   44 2    
    87   43   45 1    
    88   45   46 1    
    89   45   49 1    
    90   45  107 1    
    91   46   47 1    
    92   46  108 1    
    93   46  109 1    
    94   47   48 1    
    95   48  110 1    
    96   48  111 1    
    97   49   50 am   BACKBONE|DICT|INTERRES
    98   49  112 1    
    99   50   51 2    
   100   50   52 1    
   101   52   53 1    
   102   52   54 1    
   103   52  113 1    
   104   53  114 1    
   105   53  115 1    
   106   53  116 1    
   107   54   55 am   BACKBONE|DICT|INTERRES
   108   54  117 1    
   109   55   56 2    
   110   55   57 1    
   111   57   58 1    
   112   57   59 1    
   113   57  118 1    
   114   58  119 1    
   115   58  120 1    
   116   58  121 1    
   117   59   60 am   BACKBONE|DICT|INTERRES
   118   59  122 1    
   119   60   61 2    
   120   60   62 1    
   121   62   63 1    
   122   62   64 1    
   123   62  123 1    
   124   63  124 1    
   125   63  125 1    
   126   63  126 1    
   127   64   65 am   BACKBONE|DICT|INTERRES
   128   64  127 1    
   129   65   66 2    
@<TRIPOS>SUBSTRUCTURE
     1 UNK         1 GROUP             0       ****    0 ROOT    
