@<TRIPOS>MOLECULE
3R135
127   129    1
SMALL
USER_CHARGES


@<TRIPOS>ATOM
      1 CA        -84.1017   27.4056  -71.1839 C.3       0 UNK        -0.1998 
      2 C         -83.6324   27.8356  -72.5655 C.2       0 UNK         0.4909 
      3 O         -84.4513   27.9796  -73.4737 O.2       0 UNK        -0.5240 
      4 N         -82.3194   28.0438  -72.7282 N.am      1 UNK        -0.4739 
      5 CA        -81.6829   28.4400  -73.9916 C.3       1 UNK         0.0864 
      6 C6        -80.2516   28.9858  -73.7620 C.3       11 UNK        -0.0881 
      7 S7        -80.2399   30.6080  -72.9166 S.3       11 UNK        -0.2682 
      8 C8        -80.0659   30.1959  -71.1457 C.3       11 UNK         0.0289 
      9 C9        -78.7958   29.4128  -70.8463 C.ar      11 UNK        -0.0687 
     10 C10       -78.8688   28.0475  -70.5568 C.ar      11 UNK        -0.0823 
     11 C11       -77.7040   27.3023  -70.3582 C.ar      11 UNK        -0.0830 
     12 C12       -76.4633   27.9454  -70.3795 C.ar      11 UNK        -0.1021 
     13 C13       -76.3762   29.3131  -70.6551 C.ar      11 UNK        -0.0753 
     14 C14       -77.5474   30.0430  -70.8860 C.ar      11 UNK        -0.0933 
     15 C15       -75.0143   29.9899  -70.7281 C.3       11 UNK         0.0166 
     16 S16       -73.9851   29.2846  -72.0569 S.3       11 UNK        -0.2615 
     17 C17       -72.5172   30.3672  -71.9850 C.3       11 UNK        -0.0865 
     18 CA        -72.3071   31.1434  -73.3096 C.3       10 UNK         0.0862 
     19 C         -71.2043   32.2245  -73.1456 C.2       10 UNK         0.5551 
     20 N         -71.5809   33.4414  -72.7779 N.am      10 UNK        -0.7319 
     21 O         -70.0138   31.9601  -73.3035 O.2       10 UNK        -0.5018 
     22 N         -72.0217   30.2242  -74.4195 N.am      10 UNK        -0.4509 
     23 C         -72.0425   30.5418  -75.7173 C.2       10 UNK         0.4899 
     24 O         -72.3846   31.6478  -76.1379 O.2       10 UNK        -0.4839 
     25 CA        -71.6431   29.4568  -76.7386 C.3       9 UNK         0.0222 
     26 CB        -70.2442   29.7388  -77.3218 C.3       9 UNK        -0.1966 
     27 N         -71.7583   28.0618  -76.2799 N.am      9 UNK        -0.4218 
     28 C         -71.0397   27.4151  -75.3464 C.2       9 UNK         0.5020 
     29 O         -70.1653   27.9574  -74.6704 O.2       9 UNK        -0.5274 
     30 CA        -71.3528   25.9288  -75.0831 C.3       8 UNK         0.0270 
     31 CB        -71.7794   25.7141  -73.6196 C.3       8 UNK        -0.1976 
     32 N         -72.3877   25.3950  -75.9735 N.am      8 UNK        -0.4313 
     33 C         -72.1508   24.8792  -77.1896 C.2       8 UNK         0.5041 
     34 O         -71.0196   24.7377  -77.6558 O.2       8 UNK        -0.5577 
     35 CA        -73.3622   24.4661  -78.0521 C.3       7 UNK         0.0284 
     36 CB        -73.5770   22.9458  -77.9764 C.3       7 UNK        -0.1958 
     37 N         -74.6166   25.1431  -77.7108 N.am      7 UNK        -0.4454 
     38 C         -74.8189   26.4680  -77.7346 C.2       7 UNK         0.5089 
     39 O         -73.9768   27.2823  -78.1124 O.2       7 UNK        -0.5125 
     40 CA        -76.1532   26.9754  -77.1609 C.3       6 UNK         0.0408 
     41 CB        -77.2265   27.0342  -78.2573 C.3       6 UNK        -0.1791 
     42 N         -76.6467   26.1802  -76.0304 N.am      6 UNK        -0.4762 
     43 C         -75.9763   25.9490  -74.8903 C.2       6 UNK         0.5007 
     44 O         -74.8392   26.3631  -74.6728 O.2       6 UNK        -0.5032 
     45 CA        -76.6788   25.0752  -73.8375 C.3       5 UNK         0.0783 
     46 C46       -77.7753   25.8877  -73.1165 C.3       11 UNK        -0.0857 
     47 S47       -78.5356   25.0015  -71.7080 S.3       11 UNK        -0.2512 
     48 C48       -77.7733   25.7858  -70.2390 C.3       11 UNK         0.0225 
     49 N         -77.1996   23.8626  -74.4673 N.am      5 UNK        -0.4615 
     50 C         -76.4510   22.8052  -74.8054 C.2       4 UNK         0.5053 
     51 O         -75.2576   22.6948  -74.5257 O.2       4 UNK        -0.5105 
     52 CA        -77.1422   21.6864  -75.6058 C.3       4 UNK         0.0263 
     53 CB        -77.6817   20.6042  -74.6570 C.3       4 UNK        -0.1981 
     54 N         -78.2328   22.1714  -76.4568 N.am      4 UNK        -0.4224 
     55 C         -78.0731   22.9738  -77.5196 C.2       3 UNK         0.4895 
     56 O         -76.9782   23.3571  -77.9314 O.2       3 UNK        -0.5091 
     57 CA        -79.3589   23.4777  -78.2019 C.3       3 UNK         0.0250 
     58 CB        -79.8494   22.4616  -79.2453 C.3       3 UNK        -0.1996 
     59 N         -80.4458   23.7853  -77.2615 N.am      3 UNK        -0.4254 
     60 C         -80.3614   24.6846  -76.2706 C.2       2 UNK         0.5004 
     61 O         -79.3441   25.3389  -76.0377 O.2       2 UNK        -0.5226 
     62 CA        -81.5873   24.8141  -75.3488 C.3       2 UNK         0.0269 
     63 CB        -81.6540   23.6140  -74.3882 C.3       2 UNK        -0.1926 
     64 N         -81.5818   26.0420  -74.5466 N.am      2 UNK        -0.4687 
     65 C         -81.6826   27.2913  -75.0260 C.2       1 UNK         0.5165 
     66 O         -81.8074   27.5565  -76.2229 O.2       1 UNK        -0.5079 
     67 H67       -83.2756   27.3263  -70.4774 H         1 UNK         0.0900 
     68 H68       -84.8164   28.1274  -70.7894 H         1 UNK         0.0900 
     69 H69       -84.5936   26.4349  -71.2405 H         1 UNK         0.0900 
     70 H70       -81.6983   27.9178  -71.9443 H         1 UNK         0.2959 
     71 H71       -82.2825   29.2422  -74.4285 H         1 UNK         0.1079 
     72 H72       -79.7467   29.1341  -74.7189 H         1 UNK         0.0837 
     73 H73       -79.6394   28.2668  -73.2187 H         1 UNK         0.0837 
     74 H74       -80.0542   31.1243  -70.5730 H         1 UNK         0.0685 
     75 H75       -80.9490   29.6505  -70.8113 H         1 UNK         0.0685 
     76 H76       -79.8261   27.5456  -70.5470 H         1 UNK         0.1434 
     77 H77       -75.5556   27.3747  -70.2362 H         1 UNK         0.1329 
     78 H78       -77.4907   31.0978  -71.1182 H         1 UNK         0.1335 
     79 H79       -74.5026   29.8719  -69.7719 H         1 UNK         0.0680 
     80 H80       -75.1271   31.0624  -70.8950 H         1 UNK         0.0680 
     81 H81       -72.6240   31.0597  -71.1476 H         1 UNK         0.1032 
     82 H82       -71.6427   29.7551  -71.7559 H         1 UNK         0.1032 
     83 H83       -73.2406   31.6575  -73.5492 H         1 UNK         0.0461 
     84 H84       -70.8792   34.1539  -72.6500 H         1 UNK         0.3453 
     85 H85       -72.5537   33.6669  -72.6384 H         1 UNK         0.3453 
     86 H86       -71.6392   29.3217  -74.1680 H         1 UNK         0.2984 
     87 H87       -72.3575   29.5431  -77.5587 H         1 UNK         0.0554 
     88 H88       -70.2052   30.7295  -77.7767 H         1 UNK         0.0847 
     89 H89       -69.9832   29.0171  -78.0958 H         1 UNK         0.0847 
     90 H90       -69.4688   29.7069  -76.5558 H         1 UNK         0.0847 
     91 H91       -72.4822   27.5351  -76.7591 H         1 UNK         0.3141 
     92 H92       -70.4264   25.3727  -75.2415 H         1 UNK         0.0743 
     93 H93       -72.6229   26.3474  -73.3434 H         1 UNK         0.0784 
     94 H94       -72.0604   24.6775  -73.4326 H         1 UNK         0.0784 
     95 H95       -70.9627   25.9557  -72.9382 H         1 UNK         0.0784 
     96 H96       -73.3473   25.5164  -75.6598 H         1 UNK         0.3213 
     97 H97       -73.1242   24.7275  -79.0852 H         1 UNK         0.0855 
     98 H98       -73.8553   22.6289  -76.9706 H         1 UNK         0.0814 
     99 H99       -72.6685   22.4072  -78.2493 H         1 UNK         0.0814 
    100 H100      -74.3622   22.6208  -78.6593 H         1 UNK         0.0814 
    101 H101      -75.4000   24.5490  -77.4555 H         1 UNK         0.3105 
    102 H102      -75.9881   27.9893  -76.7909 H         1 UNK         0.0547 
    103 H103      -76.9190   27.6966  -79.0673 H         1 UNK         0.0837 
    104 H104      -77.4084   26.0520  -78.6927 H         1 UNK         0.0837 
    105 H105      -78.1736   27.4109  -77.8699 H         1 UNK         0.0837 
    106 H106      -77.5955   25.8154  -76.1108 H         1 UNK         0.3020 
    107 H107      -75.9264   24.7916  -73.0975 H         1 UNK         0.1245 
    108 H108      -78.5804   26.1452  -73.8027 H         1 UNK         0.0781 
    109 H109      -77.3679   26.8464  -72.8005 H         1 UNK         0.0781 
    110 H110      -76.7771   25.3632  -70.0992 H         1 UNK         0.0836 
    111 H111      -78.3481   25.5182  -69.3515 H         1 UNK         0.0836 
    112 H112      -78.1601   23.9049  -74.7767 H         1 UNK         0.3022 
    113 H113      -76.3882   21.2325  -76.2528 H         1 UNK         0.0747 
    114 H114      -78.1051   19.7656  -75.2101 H         1 UNK         0.0793 
    115 H115      -76.8844   20.2054  -74.0280 H         1 UNK         0.0793 
    116 H116      -78.4543   20.9959  -73.9939 H         1 UNK         0.0793 
    117 H117      -79.1704   21.9040  -76.1955 H         1 UNK         0.3047 
    118 H118      -79.1100   24.4033  -78.7237 H         1 UNK         0.0822 
    119 H119      -80.6982   22.8494  -79.8089 H         1 UNK         0.0807 
    120 H120      -80.1529   21.5205  -78.7849 H         1 UNK         0.0807 
    121 H121      -79.0629   22.2329  -79.9661 H         1 UNK         0.0807 
    122 H122      -81.3090   23.2758  -77.3871 H         1 UNK         0.2946 
    123 H123      -82.4827   24.8258  -75.9744 H         1 UNK         0.1144 
    124 H124      -82.5358   23.6669  -73.7492 H         1 UNK         0.0793 
    125 H125      -80.7760   23.5657  -73.7420 H         1 UNK         0.0793 
    126 H126      -81.7117   22.6702  -74.9317 H         1 UNK         0.0793 
    127 H127      -81.4772   25.9269  -73.5498 H         1 UNK         0.2896 
@<TRIPOS>BOND
     1    1    2 1    
     2    1   67 1    
     3    1   68 1    
     4    1   69 1    
     5    2    3 2    
     6    2    4 am   BACKBONE|DICT|INTERRES
     7    4    5 1    
     8    4   70 1    
     9    5    6 1    
    10    5   65 1    
    11    5   71 1    
    12    6    7 1    
    13    6   72 1    
    14    6   73 1    
    15    7    8 1    
    16    8    9 1    
    17    8   74 1    
    18    8   75 1    
    19    9   10 ar   
    20    9   14 ar   
    21   10   11 ar   
    22   10   76 1    
    23   11   12 ar   
    24   11   48 1    
    25   12   13 ar   
    26   12   77 1    
    27   13   14 ar   
    28   13   15 1    
    29   14   78 1    
    30   15   16 1    
    31   15   79 1    
    32   15   80 1    
    33   16   17 1    
    34   17   18 1    
    35   17   81 1    
    36   17   82 1    
    37   18   19 1    
    38   18   22 1    
    39   18   83 1    
    40   19   20 am   BACKBONE|DICT|INTERRES
    41   19   21 2    
    42   20   84 1    
    43   20   85 1    
    44   22   23 am   BACKBONE|DICT|INTERRES
    45   22   86 1    
    46   23   24 2    
    47   23   25 1    
    48   25   26 1    
    49   25   27 1    
    50   25   87 1    
    51   26   88 1    
    52   26   89 1    
    53   26   90 1    
    54   27   28 am   BACKBONE|DICT|INTERRES
    55   27   91 1    
    56   28   29 2    
    57   28   30 1    
    58   30   31 1    
    59   30   32 1    
    60   30   92 1    
    61   31   93 1    
    62   31   94 1    
    63   31   95 1    
    64   32   33 am   BACKBONE|DICT|INTERRES
    65   32   96 1    
    66   33   34 2    
    67   33   35 1    
    68   35   36 1    
    69   35   37 1    
    70   35   97 1    
    71   36   98 1    
    72   36   99 1    
    73   36  100 1    
    74   37   38 am   BACKBONE|DICT|INTERRES
    75   37  101 1    
    76   38   39 2    
    77   38   40 1    
    78   40   41 1    
    79   40   42 1    
    80   40  102 1    
    81   41  103 1    
    82   41  104 1    
    83   41  105 1    
    84   42   43 am   BACKBONE|DICT|INTERRES
    85   42  106 1    
    86   43   44 2    
    87   43   45 1    
    88   45   46 1    
    89   45   49 1    
    90   45  107 1    
    91   46   47 1    
    92   46  108 1    
    93   46  109 1    
    94   47   48 1    
    95   48  110 1    
    96   48  111 1    
    97   49   50 am   BACKBONE|DICT|INTERRES
    98   49  112 1    
    99   50   51 2    
   100   50   52 1    
   101   52   53 1    
   102   52   54 1    
   103   52  113 1    
   104   53  114 1    
   105   53  115 1    
   106   53  116 1    
   107   54   55 am   BACKBONE|DICT|INTERRES
   108   54  117 1    
   109   55   56 2    
   110   55   57 1    
   111   57   58 1    
   112   57   59 1    
   113   57  118 1    
   114   58  119 1    
   115   58  120 1    
   116   58  121 1    
   117   59   60 am   BACKBONE|DICT|INTERRES
   118   59  122 1    
   119   60   61 2    
   120   60   62 1    
   121   62   63 1    
   122   62   64 1    
   123   62  123 1    
   124   63  124 1    
   125   63  125 1    
   126   63  126 1    
   127   64   65 am   BACKBONE|DICT|INTERRES
   128   64  127 1    
   129   65   66 2    
@<TRIPOS>SUBSTRUCTURE
     1 UNK         1 GROUP             0       ****    0 ROOT    
