@<TRIPOS>MOLECULE
3R135
127   129    1
SMALL
USER_CHARGES


@<TRIPOS>ATOM
      1 CA        -80.7521   30.5645  -76.4614 C.3       0 UNK        -0.1998 
      2 C         -80.0483   29.3204  -75.9425 C.2       0 UNK         0.4909 
      3 O         -79.0203   28.9247  -76.4899 O.2       0 UNK        -0.5240 
      4 N         -80.5943   28.6940  -74.8915 N.am      1 UNK        -0.4739 
      5 CA        -80.0284   27.5024  -74.2424 C.3       1 UNK         0.0864 
      6 C6        -80.7302   27.1857  -72.8968 C.3       11 UNK        -0.0881 
      7 S7        -80.6476   28.5712  -71.7051 S.3       11 UNK        -0.2682 
      8 C8        -79.3353   28.0368  -70.5569 C.3       11 UNK         0.0289 
      9 C9        -77.9544   28.1677  -71.1819 C.ar      11 UNK        -0.0687 
     10 C10       -77.4403   27.1250  -71.9557 C.ar      11 UNK        -0.0823 
     11 C11       -76.2055   27.2559  -72.5924 C.ar      11 UNK        -0.0830 
     12 C12       -75.4548   28.4164  -72.4066 C.ar      11 UNK        -0.1021 
     13 C13       -75.9358   29.4506  -71.6013 C.ar      11 UNK        -0.0753 
     14 C14       -77.1938   29.3291  -71.0001 C.ar      11 UNK        -0.0933 
     15 C15       -75.0777   30.6865  -71.3884 C.3       11 UNK         0.0166 
     16 S16       -74.9631   31.6766  -72.9102 S.3       11 UNK        -0.2615 
     17 C17       -73.3527   32.5060  -72.6748 C.3       11 UNK        -0.0865 
     18 CA        -72.2675   31.9847  -73.6628 C.3       10 UNK         0.0862 
     19 C         -70.9795   32.8651  -73.6771 C.2       10 UNK         0.5551 
     20 N         -69.8132   32.3170  -73.9975 N.am      10 UNK        -0.7319 
     21 O         -71.0365   34.0667  -73.4257 O.2       10 UNK        -0.5018 
     22 N         -72.0203   30.5335  -73.5520 N.am      10 UNK        -0.4509 
     23 C         -71.4614   29.8956  -72.5112 C.2       10 UNK         0.4899 
     24 O         -71.1112   30.4659  -71.4778 O.2       10 UNK        -0.4839 
     25 CA        -71.2484   28.3694  -72.6168 C.3       9 UNK         0.0222 
     26 CB        -71.8697   27.6299  -71.4175 C.3       9 UNK        -0.1966 
     27 N         -71.7609   27.7878  -73.8616 N.am      9 UNK        -0.4218 
     28 C         -71.0891   27.7399  -75.0203 C.2       9 UNK         0.5020 
     29 O         -69.9294   28.1309  -75.1572 O.2       9 UNK        -0.5274 
     30 CA        -71.8514   27.1942  -76.2441 C.3       8 UNK         0.0270 
     31 CB        -71.6537   25.6754  -76.3649 C.3       8 UNK        -0.1976 
     32 N         -73.2886   27.5068  -76.2622 N.am      8 UNK        -0.4313 
     33 C         -73.8026   28.7469  -76.2377 C.2       8 UNK         0.5041 
     34 O         -73.1020   29.7539  -76.1329 O.2       8 UNK        -0.5577 
     35 CA        -75.3351   28.9177  -76.2944 C.3       7 UNK         0.0284 
     36 CB        -75.7374   30.0837  -77.2227 C.3       7 UNK        -0.1958 
     37 N         -76.1028   27.7045  -76.6143 N.am      7 UNK        -0.4454 
     38 C         -76.0897   26.9956  -77.7517 C.2       7 UNK         0.5089 
     39 O         -75.3456   27.2315  -78.7046 O.2       7 UNK        -0.5125 
     40 CA        -77.0650   25.8007  -77.7985 C.3       6 UNK         0.0408 
     41 CB        -77.0016   25.0240  -79.1302 C.3       6 UNK        -0.1791 
     42 N         -76.9146   24.8808  -76.6590 N.am      6 UNK        -0.4762 
     43 C         -75.7977   24.2243  -76.2963 C.2       6 UNK         0.5007 
     44 O         -74.7217   24.3659  -76.8764 O.2       6 UNK        -0.5032 
     45 CA        -75.8577   23.2500  -75.0984 C.3       5 UNK         0.0783 
     46 C46       -74.7816   23.5503  -74.0053 C.3       11 UNK        -0.0857 
     47 S47       -75.2770   24.6539  -72.6342 S.3       11 UNK        -0.2512 
     48 C48       -75.7217   26.1660  -73.5255 C.3       11 UNK         0.0225 
     49 N         -77.2104   23.0291  -74.5661 N.am      5 UNK        -0.4615 
     50 C         -77.5433   21.9635  -73.8249 C.2       4 UNK         0.5053 
     51 O         -76.7632   21.0558  -73.5341 O.2       4 UNK        -0.5105 
     52 CA        -79.0006   21.8808  -73.3455 C.3       4 UNK         0.0263 
     53 CB        -79.3217   22.9943  -72.3331 C.3       4 UNK        -0.1981 
     54 N         -79.9429   21.9325  -74.4627 N.am      4 UNK        -0.4224 
     55 C         -80.0843   20.9886  -75.4040 C.2       3 UNK         0.4895 
     56 O         -79.4836   19.9138  -75.3869 O.2       3 UNK        -0.5091 
     57 CA        -81.0330   21.2854  -76.5827 C.3       3 UNK         0.0250 
     58 CB        -82.4623   20.7868  -76.2895 C.3       3 UNK        -0.1996 
     59 N         -81.0202   22.6858  -77.0370 N.am      3 UNK        -0.4254 
     60 C         -81.4534   23.7744  -76.3873 C.2       2 UNK         0.5004 
     61 O         -82.0148   23.7467  -75.2893 O.2       2 UNK        -0.5226 
     62 CA        -81.1745   25.1235  -77.0681 C.3       2 UNK         0.0269 
     63 CB        -82.3271   25.5004  -78.0121 C.3       2 UNK        -0.1926 
     64 N         -80.9797   26.2045  -76.0996 N.am      2 UNK        -0.4687 
     65 C         -80.0240   26.2587  -75.1591 C.2       1 UNK         0.5165 
     66 O         -79.1497   25.3968  -75.0163 O.2       1 UNK        -0.5079 
     67 H67       -81.0515   30.4199  -77.4990 H         1 UNK         0.0900 
     68 H68       -80.0789   31.4202  -76.4166 H         1 UNK         0.0900 
     69 H69       -81.6425   30.8019  -75.8797 H         1 UNK         0.0900 
     70 H70       -81.4264   29.0720  -74.4606 H         1 UNK         0.2959 
     71 H71       -78.9819   27.7317  -74.0406 H         1 UNK         0.1079 
     72 H72       -81.7839   26.9574  -73.0685 H         1 UNK         0.0837 
     73 H73       -80.3107   26.2903  -72.4358 H         1 UNK         0.0837 
     74 H74       -79.3913   28.6475  -69.6545 H         1 UNK         0.0685 
     75 H75       -79.5157   27.0090  -70.2378 H         1 UNK         0.0685 
     76 H76       -78.0148   26.2202  -72.0961 H         1 UNK         0.1434 
     77 H77       -74.5011   28.5328  -72.8997 H         1 UNK         0.1329 
     78 H78       -77.5819   30.1363  -70.3941 H         1 UNK         0.1335 
     79 H79       -75.4743   31.3080  -70.5842 H         1 UNK         0.0680 
     80 H80       -74.0837   30.3675  -71.0724 H         1 UNK         0.0680 
     81 H81       -73.0153   32.4089  -71.6419 H         1 UNK         0.1032 
     82 H82       -73.5249   33.5727  -72.8288 H         1 UNK         0.1032 
     83 H83       -72.6764   32.1159  -74.6652 H         1 UNK         0.0461 
     84 H84       -68.9844   32.8900  -74.0160 H         1 UNK         0.3453 
     85 H85       -69.7574   31.3362  -74.2224 H         1 UNK         0.3453 
     86 H86       -72.2699   30.0099  -74.3858 H         1 UNK         0.2984 
     87 H87       -70.1700   28.2030  -72.5744 H         1 UNK         0.0554 
     88 H88       -71.7021   26.5547  -71.4827 H         1 UNK         0.0847 
     89 H89       -72.9425   27.7969  -71.3373 H         1 UNK         0.0847 
     90 H90       -71.4237   27.9652  -70.4802 H         1 UNK         0.0847 
     91 H91       -72.7032   27.4314  -73.8456 H         1 UNK         0.3141 
     92 H92       -71.4134   27.6624  -77.1281 H         1 UNK         0.0743 
     93 H93       -72.0961   25.1419  -75.5237 H         1 UNK         0.0784 
     94 H94       -72.1008   25.2881  -77.2809 H         1 UNK         0.0784 
     95 H95       -70.5934   25.4200  -76.3915 H         1 UNK         0.0784 
     96 H96       -73.9179   26.7315  -76.4225 H         1 UNK         0.3213 
     97 H97       -75.6358   29.1980  -75.2838 H         1 UNK         0.0855 
     98 H98       -75.2887   31.0214  -76.8920 H         1 UNK         0.0814 
     99 H99       -76.8164   30.2333  -77.2309 H         1 UNK         0.0814 
    100 H100      -75.4138   29.9142  -78.2500 H         1 UNK         0.0814 
    101 H101      -76.7983   27.4466  -75.9292 H         1 UNK         0.3105 
    102 H102      -78.0653   26.2290  -77.7195 H         1 UNK         0.0547 
    103 H103      -77.2082   25.6817  -79.9753 H         1 UNK         0.0837 
    104 H104      -76.0183   24.5828  -79.2960 H         1 UNK         0.0837 
    105 H105      -77.7381   24.2214  -79.1575 H         1 UNK         0.0837 
    106 H106      -77.7493   24.7910  -76.0882 H         1 UNK         0.3020 
    107 H107      -75.5648   22.3022  -75.5571 H         1 UNK         0.1245 
    108 H108      -73.8569   23.9299  -74.4417 H         1 UNK         0.0781 
    109 H109      -74.4934   22.6071  -73.5390 H         1 UNK         0.0781 
    110 H110      -76.5339   25.9506  -74.2152 H         1 UNK         0.0836 
    111 H111      -74.8712   26.4995  -74.1187 H         1 UNK         0.0836 
    112 H112      -77.9077   23.7442  -74.7312 H         1 UNK         0.3022 
    113 H113      -79.1315   20.9208  -72.8414 H         1 UNK         0.0747 
    114 H114      -80.3257   22.8790  -71.9245 H         1 UNK         0.0793 
    115 H115      -78.6251   22.9695  -71.4939 H         1 UNK         0.0793 
    116 H116      -79.2561   23.9860  -72.7789 H         1 UNK         0.0793 
    117 H117      -80.5252   22.7609  -74.5465 H         1 UNK         0.3047 
    118 H118      -80.6580   20.7058  -77.4280 H         1 UNK         0.0822 
    119 H119      -83.1227   20.9518  -77.1408 H         1 UNK         0.0807 
    120 H120      -82.9014   21.2813  -75.4227 H         1 UNK         0.0807 
    121 H121      -82.4629   19.7159  -76.0817 H         1 UNK         0.0807 
    122 H122      -80.5680   22.8263  -77.9303 H         1 UNK         0.2946 
    123 H123      -80.2557   25.0349  -77.6513 H         1 UNK         0.1144 
    124 H124      -82.4830   24.7309  -78.7695 H         1 UNK         0.0793 
    125 H125      -82.1211   26.4326  -78.5386 H         1 UNK         0.0793 
    126 H126      -83.2672   25.6199  -77.4716 H         1 UNK         0.0793 
    127 H127      -81.6486   26.9597  -76.1267 H         1 UNK         0.2896 
@<TRIPOS>BOND
     1    1    2 1    
     2    1   67 1    
     3    1   68 1    
     4    1   69 1    
     5    2    3 2    
     6    2    4 am   BACKBONE|DICT|INTERRES
     7    4    5 1    
     8    4   70 1    
     9    5    6 1    
    10    5   65 1    
    11    5   71 1    
    12    6    7 1    
    13    6   72 1    
    14    6   73 1    
    15    7    8 1    
    16    8    9 1    
    17    8   74 1    
    18    8   75 1    
    19    9   10 ar   
    20    9   14 ar   
    21   10   11 ar   
    22   10   76 1    
    23   11   12 ar   
    24   11   48 1    
    25   12   13 ar   
    26   12   77 1    
    27   13   14 ar   
    28   13   15 1    
    29   14   78 1    
    30   15   16 1    
    31   15   79 1    
    32   15   80 1    
    33   16   17 1    
    34   17   18 1    
    35   17   81 1    
    36   17   82 1    
    37   18   19 1    
    38   18   22 1    
    39   18   83 1    
    40   19   20 am   BACKBONE|DICT|INTERRES
    41   19   21 2    
    42   20   84 1    
    43   20   85 1    
    44   22   23 am   BACKBONE|DICT|INTERRES
    45   22   86 1    
    46   23   24 2    
    47   23   25 1    
    48   25   26 1    
    49   25   27 1    
    50   25   87 1    
    51   26   88 1    
    52   26   89 1    
    53   26   90 1    
    54   27   28 am   BACKBONE|DICT|INTERRES
    55   27   91 1    
    56   28   29 2    
    57   28   30 1    
    58   30   31 1    
    59   30   32 1    
    60   30   92 1    
    61   31   93 1    
    62   31   94 1    
    63   31   95 1    
    64   32   33 am   BACKBONE|DICT|INTERRES
    65   32   96 1    
    66   33   34 2    
    67   33   35 1    
    68   35   36 1    
    69   35   37 1    
    70   35   97 1    
    71   36   98 1    
    72   36   99 1    
    73   36  100 1    
    74   37   38 am   BACKBONE|DICT|INTERRES
    75   37  101 1    
    76   38   39 2    
    77   38   40 1    
    78   40   41 1    
    79   40   42 1    
    80   40  102 1    
    81   41  103 1    
    82   41  104 1    
    83   41  105 1    
    84   42   43 am   BACKBONE|DICT|INTERRES
    85   42  106 1    
    86   43   44 2    
    87   43   45 1    
    88   45   46 1    
    89   45   49 1    
    90   45  107 1    
    91   46   47 1    
    92   46  108 1    
    93   46  109 1    
    94   47   48 1    
    95   48  110 1    
    96   48  111 1    
    97   49   50 am   BACKBONE|DICT|INTERRES
    98   49  112 1    
    99   50   51 2    
   100   50   52 1    
   101   52   53 1    
   102   52   54 1    
   103   52  113 1    
   104   53  114 1    
   105   53  115 1    
   106   53  116 1    
   107   54   55 am   BACKBONE|DICT|INTERRES
   108   54  117 1    
   109   55   56 2    
   110   55   57 1    
   111   57   58 1    
   112   57   59 1    
   113   57  118 1    
   114   58  119 1    
   115   58  120 1    
   116   58  121 1    
   117   59   60 am   BACKBONE|DICT|INTERRES
   118   59  122 1    
   119   60   61 2    
   120   60   62 1    
   121   62   63 1    
   122   62   64 1    
   123   62  123 1    
   124   63  124 1    
   125   63  125 1    
   126   63  126 1    
   127   64   65 am   BACKBONE|DICT|INTERRES
   128   64  127 1    
   129   65   66 2    
@<TRIPOS>SUBSTRUCTURE
     1 UNK         1 GROUP             0       ****    0 ROOT    
