@<TRIPOS>MOLECULE
3R135
127   129    1
SMALL
USER_CHARGES


@<TRIPOS>ATOM
      1 CA        -82.9374   27.9469  -70.3894 C.3       0 UNK        -0.1998 
      2 C         -82.1986   27.6511  -71.6852 C.2       0 UNK         0.4909 
      3 O         -81.2994   26.8109  -71.6910 O.2       0 UNK        -0.5240 
      4 N         -82.5792   28.3321  -72.7759 N.am      1 UNK        -0.4739 
      5 CA        -82.0231   28.2770  -74.1400 C.3       1 UNK         0.0864 
      6 C6        -80.5315   28.6920  -74.2349 C.3       11 UNK        -0.0881 
      7 S7        -80.2370   30.4450  -73.8140 S.3       11 UNK        -0.2682 
      8 C8        -79.5200   30.3698  -72.1385 C.3       11 UNK         0.0289 
      9 C9        -78.3079   29.4517  -72.0460 C.ar      11 UNK        -0.0687 
     10 C10       -78.3648   28.3105  -71.2415 C.ar      11 UNK        -0.0823 
     11 C11       -77.2793   27.4359  -71.1584 C.ar      11 UNK        -0.0830 
     12 C12       -76.1176   27.7260  -71.8814 C.ar      11 UNK        -0.1021 
     13 C13       -76.0443   28.8635  -72.6910 C.ar      11 UNK        -0.0753 
     14 C14       -77.1398   29.7295  -72.7636 C.ar      11 UNK        -0.0933 
     15 C15       -74.7946   29.1188  -73.5180 C.3       11 UNK         0.0166 
     16 S16       -73.3561   29.5124  -72.4746 S.3       11 UNK        -0.2615 
     17 C17       -73.1900   31.3208  -72.6799 C.3       11 UNK        -0.0865 
     18 CA        -72.7479   31.7806  -74.1042 C.3       10 UNK         0.0862 
     19 C         -72.4909   33.3159  -74.1805 C.2       10 UNK         0.5551 
     20 N         -71.5636   33.7892  -75.0039 N.am      10 UNK        -0.7319 
     21 O         -73.1623   34.0948  -73.5077 O.2       10 UNK        -0.5018 
     22 N         -71.6969   30.9372  -74.7013 N.am      10 UNK        -0.4509 
     23 C         -70.4484   30.7578  -74.2587 C.2       10 UNK         0.4899 
     24 O         -69.9724   31.3346  -73.2796 O.2       10 UNK        -0.4839 
     25 CA        -69.6014   29.7393  -75.0512 C.3       9 UNK         0.0222 
     26 CB        -68.1109   29.7892  -74.6656 C.3       9 UNK        -0.1966 
     27 N         -70.0855   28.3616  -74.8981 N.am      9 UNK        -0.4218 
     28 C         -71.2059   27.8551  -75.4331 C.2       9 UNK         0.5020 
     29 O         -71.9827   28.5132  -76.1308 O.2       9 UNK        -0.5274 
     30 CA        -71.4962   26.3727  -75.1208 C.3       8 UNK         0.0270 
     31 CB        -71.8432   26.1731  -73.6351 C.3       8 UNK        -0.1976 
     32 N         -72.5880   25.8342  -75.9381 N.am      8 UNK        -0.4313 
     33 C         -72.4901   25.5411  -77.2441 C.2       8 UNK         0.5041 
     34 O         -71.4313   25.5979  -77.8731 O.2       8 UNK        -0.5577 
     35 CA        -73.7660   25.0907  -77.9874 C.3       7 UNK         0.0284 
     36 CB        -73.7486   23.5697  -78.2134 C.3       7 UNK        -0.1958 
     37 N         -75.0117   25.4456  -77.3075 N.am      7 UNK        -0.4454 
     38 C         -75.4781   26.6878  -77.1236 C.2       7 UNK         0.5089 
     39 O         -74.9695   27.6908  -77.6227 O.2       7 UNK        -0.5125 
     40 CA        -76.7219   26.8434  -76.2260 C.3       6 UNK         0.0408 
     41 CB        -77.9591   27.1037  -77.0983 C.3       6 UNK        -0.1791 
     42 N         -76.9964   25.7029  -75.3416 N.am      6 UNK        -0.4762 
     43 C         -76.1687   25.1914  -74.4160 C.2       6 UNK         0.5007 
     44 O         -75.0207   25.5937  -74.2304 O.2       6 UNK        -0.5032 
     45 CA        -76.6825   23.9736  -73.6277 C.3       5 UNK         0.0783 
     46 C46       -77.5844   24.3754  -72.4323 C.3       11 UNK        -0.0857 
     47 S47       -76.5920   24.7053  -70.9375 S.3       11 UNK        -0.2512 
     48 C48       -77.3840   26.2038  -70.2629 C.3       11 UNK         0.0225 
     49 N         -77.3553   23.0374  -74.5299 N.am      5 UNK        -0.4615 
     50 C         -76.7277   22.0817  -75.2288 C.2       4 UNK         0.5053 
     51 O         -75.5204   21.8565  -75.1481 O.2       4 UNK        -0.5105 
     52 CA        -77.5829   21.2290  -76.1828 C.3       4 UNK         0.0263 
     53 CB        -78.0777   19.9603  -75.4697 C.3       4 UNK        -0.1981 
     54 N         -78.7303   21.9515  -76.7353 N.am      4 UNK        -0.4224 
     55 C         -78.6401   22.9655  -77.6070 C.2       3 UNK         0.4895 
     56 O         -77.5785   23.3787  -78.0742 O.2       3 UNK        -0.5091 
     57 CA        -79.9583   23.6563  -77.9993 C.3       3 UNK         0.0250 
     58 CB        -80.5905   22.9523  -79.2107 C.3       3 UNK        -0.1996 
     59 N         -80.9509   23.7567  -76.9195 N.am      3 UNK        -0.4254 
     60 C         -80.7442   24.3371  -75.7288 C.2       2 UNK         0.5004 
     61 O         -79.6459   24.7423  -75.3416 O.2       2 UNK        -0.5226 
     62 CA        -81.9558   24.4684  -74.7940 C.3       2 UNK         0.0269 
     63 CB        -81.8800   23.4232  -73.6698 C.3       2 UNK        -0.1926 
     64 N         -81.9920   25.8059  -74.2020 N.am      2 UNK        -0.4687 
     65 C         -82.2525   26.9352  -74.8714 C.2       1 UNK         0.5165 
     66 O         -82.6531   26.9494  -76.0366 O.2       1 UNK        -0.5079 
     67 H67       -82.2369   28.2973  -69.6320 H         1 UNK         0.0900 
     68 H68       -83.7046   28.7098  -70.5206 H         1 UNK         0.0900 
     69 H69       -83.4175   27.0423  -70.0174 H         1 UNK         0.0900 
     70 H70       -83.3469   28.9822  -72.6780 H         1 UNK         0.2959 
     71 H71       -82.5960   29.0130  -74.7072 H         1 UNK         0.1079 
     72 H72       -80.1791   28.5765  -75.2604 H         1 UNK         0.0837 
     73 H73       -79.9035   28.0311  -73.6370 H         1 UNK         0.0837 
     74 H74       -79.2263   31.3761  -71.8372 H         1 UNK         0.0685 
     75 H75       -80.2982   30.0587  -71.4404 H         1 UNK         0.0685 
     76 H76       -79.2647   28.0959  -70.6824 H         1 UNK         0.1434 
     77 H77       -75.2669   27.0603  -71.8299 H         1 UNK         0.1329 
     78 H78       -77.0963   30.6071  -73.3939 H         1 UNK         0.1335 
     79 H79       -74.9703   29.9058  -74.2505 H         1 UNK         0.0680 
     80 H80       -74.5635   28.2246  -74.0971 H         1 UNK         0.0680 
     81 H81       -72.4649   31.6637  -71.9399 H         1 UNK         0.1032 
     82 H82       -74.1386   31.7870  -72.4071 H         1 UNK         0.1032 
     83 H83       -73.6044   31.6369  -74.7618 H         1 UNK         0.0461 
     84 H84       -71.0151   33.1587  -75.5664 H         1 UNK         0.3453 
     85 H85       -71.4081   34.7836  -75.0576 H         1 UNK         0.3453 
     86 H86       -71.9950   30.3393  -75.4671 H         1 UNK         0.2984 
     87 H87       -69.6752   30.0100  -76.1066 H         1 UNK         0.0554 
     88 H88       -67.7092   30.7958  -74.7901 H         1 UNK         0.0847 
     89 H89       -67.5150   29.1263  -75.2931 H         1 UNK         0.0847 
     90 H90       -67.9509   29.5018  -73.6256 H         1 UNK         0.0847 
     91 H91       -69.5250   27.7599  -74.3118 H         1 UNK         0.3141 
     92 H92       -70.5919   25.8019  -75.3422 H         1 UNK         0.0743 
     93 H93       -72.7376   26.7279  -73.3529 H         1 UNK         0.0784 
     94 H94       -72.0230   25.1219  -73.4089 H         1 UNK         0.0784 
     95 H95       -71.0349   26.5085  -72.9847 H         1 UNK         0.0784 
     96 H96       -73.4985   25.7802  -75.4898 H         1 UNK         0.3213 
     97 H97       -73.7650   25.5848  -78.9612 H         1 UNK         0.0855 
     98 H98       -73.7615   23.0223  -77.2697 H         1 UNK         0.0814 
     99 H99       -72.8527   23.2647  -78.7560 H         1 UNK         0.0814 
    100 H100      -74.6086   23.2453  -78.8001 H         1 UNK         0.0814 
    101 H101      -75.5379   24.6875  -76.8958 H         1 UNK         0.3105 
    102 H102      -76.5627   27.7130  -75.5862 H         1 UNK         0.0547 
    103 H103      -78.1008   26.3099  -77.8315 H         1 UNK         0.0837 
    104 H104      -77.8581   28.0401  -77.6484 H         1 UNK         0.0837 
    105 H105      -78.8669   27.1709  -76.5015 H         1 UNK         0.0837 
    106 H106      -77.9339   25.3079  -75.4066 H         1 UNK         0.3020 
    107 H107      -75.8004   23.4668  -73.2276 H         1 UNK         0.1245 
    108 H108      -78.2622   23.5586  -72.1791 H         1 UNK         0.0781 
    109 H109      -78.2270   25.2251  -72.6745 H         1 UNK         0.0781 
    110 H110      -76.9240   26.4371  -69.3020 H         1 UNK         0.0836 
    111 H111      -78.4300   25.9707  -70.0555 H         1 UNK         0.0836 
    112 H112      -78.3343   23.2201  -74.7125 H         1 UNK         0.3022 
    113 H113      -76.9429   20.9263  -77.0146 H         1 UNK         0.0747 
    114 H114      -78.6181   19.3054  -76.1534 H         1 UNK         0.0793 
    115 H115      -77.2403   19.3870  -75.0691 H         1 UNK         0.0793 
    116 H116      -78.7393   20.1966  -74.6352 H         1 UNK         0.0793 
    117 H117      -79.6463   21.6794  -76.4097 H         1 UNK         0.3047 
    118 H118      -79.7102   24.6759  -78.2979 H         1 UNK         0.0822 
    119 H119      -81.4589   23.4985  -79.5798 H         1 UNK         0.0807 
    120 H120      -80.9088   21.9375  -78.9688 H         1 UNK         0.0807 
    121 H121      -79.8807   22.8830  -80.0365 H         1 UNK         0.0807 
    122 H122      -81.8824   23.4364  -77.1434 H         1 UNK         0.2946 
    123 H123      -82.8751   24.3152  -75.3636 H         1 UNK         0.1144 
    124 H124      -81.8644   22.4107  -74.0751 H         1 UNK         0.0793 
    125 H125      -82.7419   23.4933  -73.0060 H         1 UNK         0.0793 
    126 H126      -80.9813   23.5479  -73.0636 H         1 UNK         0.0793 
    127 H127      -81.6384   25.9078  -73.2530 H         1 UNK         0.2896 
@<TRIPOS>BOND
     1    1    2 1    
     2    1   67 1    
     3    1   68 1    
     4    1   69 1    
     5    2    3 2    
     6    2    4 am   BACKBONE|DICT|INTERRES
     7    4    5 1    
     8    4   70 1    
     9    5    6 1    
    10    5   65 1    
    11    5   71 1    
    12    6    7 1    
    13    6   72 1    
    14    6   73 1    
    15    7    8 1    
    16    8    9 1    
    17    8   74 1    
    18    8   75 1    
    19    9   10 ar   
    20    9   14 ar   
    21   10   11 ar   
    22   10   76 1    
    23   11   12 ar   
    24   11   48 1    
    25   12   13 ar   
    26   12   77 1    
    27   13   14 ar   
    28   13   15 1    
    29   14   78 1    
    30   15   16 1    
    31   15   79 1    
    32   15   80 1    
    33   16   17 1    
    34   17   18 1    
    35   17   81 1    
    36   17   82 1    
    37   18   19 1    
    38   18   22 1    
    39   18   83 1    
    40   19   20 am   BACKBONE|DICT|INTERRES
    41   19   21 2    
    42   20   84 1    
    43   20   85 1    
    44   22   23 am   BACKBONE|DICT|INTERRES
    45   22   86 1    
    46   23   24 2    
    47   23   25 1    
    48   25   26 1    
    49   25   27 1    
    50   25   87 1    
    51   26   88 1    
    52   26   89 1    
    53   26   90 1    
    54   27   28 am   BACKBONE|DICT|INTERRES
    55   27   91 1    
    56   28   29 2    
    57   28   30 1    
    58   30   31 1    
    59   30   32 1    
    60   30   92 1    
    61   31   93 1    
    62   31   94 1    
    63   31   95 1    
    64   32   33 am   BACKBONE|DICT|INTERRES
    65   32   96 1    
    66   33   34 2    
    67   33   35 1    
    68   35   36 1    
    69   35   37 1    
    70   35   97 1    
    71   36   98 1    
    72   36   99 1    
    73   36  100 1    
    74   37   38 am   BACKBONE|DICT|INTERRES
    75   37  101 1    
    76   38   39 2    
    77   38   40 1    
    78   40   41 1    
    79   40   42 1    
    80   40  102 1    
    81   41  103 1    
    82   41  104 1    
    83   41  105 1    
    84   42   43 am   BACKBONE|DICT|INTERRES
    85   42  106 1    
    86   43   44 2    
    87   43   45 1    
    88   45   46 1    
    89   45   49 1    
    90   45  107 1    
    91   46   47 1    
    92   46  108 1    
    93   46  109 1    
    94   47   48 1    
    95   48  110 1    
    96   48  111 1    
    97   49   50 am   BACKBONE|DICT|INTERRES
    98   49  112 1    
    99   50   51 2    
   100   50   52 1    
   101   52   53 1    
   102   52   54 1    
   103   52  113 1    
   104   53  114 1    
   105   53  115 1    
   106   53  116 1    
   107   54   55 am   BACKBONE|DICT|INTERRES
   108   54  117 1    
   109   55   56 2    
   110   55   57 1    
   111   57   58 1    
   112   57   59 1    
   113   57  118 1    
   114   58  119 1    
   115   58  120 1    
   116   58  121 1    
   117   59   60 am   BACKBONE|DICT|INTERRES
   118   59  122 1    
   119   60   61 2    
   120   60   62 1    
   121   62   63 1    
   122   62   64 1    
   123   62  123 1    
   124   63  124 1    
   125   63  125 1    
   126   63  126 1    
   127   64   65 am   BACKBONE|DICT|INTERRES
   128   64  127 1    
   129   65   66 2    
@<TRIPOS>SUBSTRUCTURE
     1 UNK         1 GROUP             0       ****    0 ROOT    
