@<TRIPOS>MOLECULE
3R135
127   129    1
SMALL
USER_CHARGES


@<TRIPOS>ATOM
      1 CA        -80.1941   25.3610  -71.3071 C.3       0 UNK        -0.1998 
      2 C         -81.0853   26.1179  -72.2801 C.2       0 UNK         0.4909 
      3 O         -82.2900   25.8693  -72.3287 O.2       0 UNK        -0.5240 
      4 N         -80.4959   27.0298  -73.0631 N.am      1 UNK        -0.4739 
      5 CA        -81.1787   27.8444  -74.0805 C.3       1 UNK         0.0864 
      6 C6        -80.6860   29.3167  -74.0887 C.3       11 UNK        -0.0881 
      7 S7        -80.9246   30.1186  -72.4610 S.3       11 UNK        -0.2682 
      8 C8        -79.5742   31.3520  -72.4051 C.3       11 UNK         0.0289 
      9 C9        -78.1592   30.7936  -72.5641 C.ar      11 UNK        -0.0687 
     10 C10       -77.8372   29.4716  -72.2411 C.ar      11 UNK        -0.0823 
     11 C11       -76.5625   28.9649  -72.5007 C.ar      11 UNK        -0.0830 
     12 C12       -75.5772   29.8102  -73.0173 C.ar      11 UNK        -0.1021 
     13 C13       -75.8561   31.1600  -73.2730 C.ar      11 UNK        -0.0753 
     14 C14       -77.1552   31.6311  -73.0581 C.ar      11 UNK        -0.0933 
     15 C15       -74.8171   32.1536  -73.8010 C.3       11 UNK         0.0166 
     16 S16       -73.0985   31.5542  -73.9373 S.3       11 UNK        -0.2615 
     17 C17       -72.6181   31.3502  -72.1843 C.3       11 UNK        -0.0865 
     18 CA        -71.2657   30.5950  -72.0244 C.3       10 UNK         0.0862 
     19 C         -70.7871   30.5202  -70.5422 C.2       10 UNK         0.5551 
     20 N         -70.0720   29.4792  -70.1336 N.am      10 UNK        -0.7319 
     21 O         -71.0357   31.4328  -69.7576 O.2       10 UNK        -0.5018 
     22 N         -71.2326   29.3193  -72.7642 N.am      10 UNK        -0.4509 
     23 C         -71.9694   28.2287  -72.5244 C.2       10 UNK         0.4899 
     24 O         -72.7358   28.1062  -71.5685 O.2       10 UNK        -0.4839 
     25 CA        -71.8571   27.1065  -73.5744 C.3       9 UNK         0.0222 
     26 CB        -72.3869   25.7574  -73.0563 C.3       9 UNK        -0.1966 
     27 N         -72.5734   27.4657  -74.8021 N.am      9 UNK        -0.4218 
     28 C         -72.1479   28.3588  -75.7093 C.2       9 UNK         0.5020 
     29 O         -71.0487   28.9134  -75.6463 O.2       9 UNK        -0.5274 
     30 CA        -73.0818   28.7059  -76.8784 C.3       8 UNK         0.0270 
     31 CB        -72.7137   27.8762  -78.1197 C.3       8 UNK        -0.1976 
     32 N         -74.4920   28.4779  -76.5577 N.am      8 UNK        -0.4313 
     33 C         -75.4774   29.3805  -76.6805 C.2       8 UNK         0.5041 
     34 O         -75.2953   30.5490  -77.0271 O.2       8 UNK        -0.5577 
     35 CA        -76.9147   28.8831  -76.3955 C.3       7 UNK         0.0284 
     36 CB        -77.9968   29.7180  -77.1110 C.3       7 UNK        -0.1958 
     37 N         -77.0830   27.4500  -76.6711 N.am      7 UNK        -0.4454 
     38 C         -76.8747   26.8184  -77.8375 C.2       7 UNK         0.5089 
     39 O         -76.7197   27.3978  -78.9128 O.2       7 UNK        -0.5125 
     40 CA        -76.7744   25.2787  -77.7927 C.3       6 UNK         0.0408 
     41 CB        -75.6547   24.7540  -78.7144 C.3       6 UNK        -0.1791 
     42 N         -76.6200   24.7078  -76.4468 N.am      6 UNK        -0.4762 
     43 C         -75.6405   24.9211  -75.5527 C.2       6 UNK         0.5007 
     44 O         -74.7243   25.7322  -75.7087 O.2       6 UNK        -0.5032 
     45 CA        -75.7387   24.1183  -74.2367 C.3       5 UNK         0.0783 
     46 C46       -76.5668   24.7962  -73.0939 C.3       11 UNK        -0.0857 
     47 S47       -77.2534   26.4659  -73.3922 S.3       11 UNK        -0.2512 
     48 C48       -76.2709   27.4935  -72.2587 C.3       11 UNK         0.0225 
     49 N         -76.2146   22.7574  -74.5088 N.am      5 UNK        -0.4615 
     50 C         -75.4669   21.7906  -75.0605 C.2       4 UNK         0.5053 
     51 O         -74.2663   21.9128  -75.3040 O.2       4 UNK        -0.5105 
     52 CA        -76.1653   20.4611  -75.3999 C.3       4 UNK         0.0263 
     53 CB        -75.9355   19.4341  -74.2792 C.3       4 UNK        -0.1981 
     54 N         -77.6047   20.5957  -75.6419 N.am      4 UNK        -0.4224 
     55 C         -78.1524   21.2128  -76.6985 C.2       3 UNK         0.4895 
     56 O         -77.4960   21.7211  -77.6082 O.2       3 UNK        -0.5091 
     57 CA        -79.6916   21.2827  -76.7614 C.3       3 UNK         0.0250 
     58 CB        -80.4077   20.6894  -75.5247 C.3       3 UNK        -0.1996 
     59 N         -80.1761   22.6447  -77.0197 N.am      3 UNK        -0.4254 
     60 C         -79.9426   23.7367  -76.2771 C.2       2 UNK         0.5004 
     61 O         -79.2045   23.7452  -75.2861 O.2       2 UNK        -0.5226 
     62 CA        -80.6502   25.0363  -76.7030 C.3       2 UNK         0.0269 
     63 CB        -82.0621   24.7827  -77.2833 C.3       2 UNK        -0.1926 
     64 N         -80.7231   25.9030  -75.5297 N.am      2 UNK        -0.4687 
     65 C         -81.0972   27.1877  -75.4790 C.2       1 UNK         0.5165 
     66 O         -81.3858   27.8459  -76.4791 O.2       1 UNK        -0.5079 
     67 H67       -79.9858   24.3619  -71.6892 H         1 UNK         0.0900 
     68 H68       -80.6882   25.2621  -70.3409 H         1 UNK         0.0900 
     69 H69       -79.2449   25.8715  -71.1458 H         1 UNK         0.0900 
     70 H70       -79.4923   27.1474  -73.0150 H         1 UNK         0.2959 
     71 H71       -82.2453   27.8755  -73.8468 H         1 UNK         0.1079 
     72 H72       -79.6374   29.3622  -74.3847 H         1 UNK         0.0837 
     73 H73       -81.2343   29.9047  -74.8271 H         1 UNK         0.0837 
     74 H74       -79.7663   32.0915  -73.1843 H         1 UNK         0.0685 
     75 H75       -79.6309   31.8829  -71.4541 H         1 UNK         0.0685 
     76 H76       -78.5899   28.8143  -71.8312 H         1 UNK         0.1434 
     77 H77       -74.5964   29.4065  -73.2190 H         1 UNK         0.1329 
     78 H78       -77.3889   32.6625  -73.2859 H         1 UNK         0.1335 
     79 H79       -75.1329   32.4774  -74.7938 H         1 UNK         0.0680 
     80 H80       -74.8199   33.0441  -73.1706 H         1 UNK         0.0680 
     81 H81       -73.4064   30.8287  -71.6403 H         1 UNK         0.1032 
     82 H82       -72.5543   32.3451  -71.7400 H         1 UNK         0.1032 
     83 H83       -70.5092   31.2107  -72.5120 H         1 UNK         0.0461 
     84 H84       -69.7549   29.4391  -69.1778 H         1 UNK         0.3453 
     85 H85       -69.8584   28.7293  -70.7713 H         1 UNK         0.3453 
     86 H86       -70.7014   29.3317  -73.6279 H         1 UNK         0.2984 
     87 H87       -70.7992   26.9743  -73.8115 H         1 UNK         0.0554 
     88 H88       -72.2541   24.9686  -73.7971 H         1 UNK         0.0847 
     89 H89       -73.4452   25.8060  -72.8034 H         1 UNK         0.0847 
     90 H90       -71.8527   25.4500  -72.1564 H         1 UNK         0.0847 
     91 H91       -73.4510   26.9848  -74.9667 H         1 UNK         0.3141 
     92 H92       -72.9163   29.7606  -77.1082 H         1 UNK         0.0743 
     93 H93       -71.6755   28.0444  -78.4090 H         1 UNK         0.0784 
     94 H94       -72.8351   26.8073  -77.9394 H         1 UNK         0.0784 
     95 H95       -73.3369   28.1444  -78.9732 H         1 UNK         0.0784 
     96 H96       -74.7408   27.5286  -76.2926 H         1 UNK         0.3213 
     97 H97       -77.0702   29.0053  -75.3238 H         1 UNK         0.0855 
     98 H98       -77.9748   30.7539  -76.7707 H         1 UNK         0.0814 
     99 H99       -78.9958   29.3323  -76.9096 H         1 UNK         0.0814 
    100 H100      -77.8521   29.7275  -78.1915 H         1 UNK         0.0814 
    101 H101      -77.2033   26.8658  -75.8534 H         1 UNK         0.3105 
    102 H102      -77.7210   24.8992  -78.1778 H         1 UNK         0.0547 
    103 H103      -75.8226   25.0518  -79.7500 H         1 UNK         0.0837 
    104 H104      -74.6767   25.1356  -78.4206 H         1 UNK         0.0837 
    105 H105      -75.6084   23.6650  -78.6974 H         1 UNK         0.0837 
    106 H106      -77.3571   24.0709  -76.1630 H         1 UNK         0.3020 
    107 H107      -74.7113   24.0316  -73.8769 H         1 UNK         0.1245 
    108 H108      -75.9652   24.8222  -72.1840 H         1 UNK         0.0781 
    109 H109      -77.4247   24.1743  -72.8321 H         1 UNK         0.0781 
    110 H110      -75.2115   27.2838  -72.4042 H         1 UNK         0.0836 
    111 H111      -76.5057   27.2345  -71.2253 H         1 UNK         0.0836 
    112 H112      -77.2020   22.5894  -74.3705 H         1 UNK         0.3022 
    113 H113      -75.7061   20.0776  -76.3137 H         1 UNK         0.0747 
    114 H114      -76.3516   18.4609  -74.5405 H         1 UNK         0.0793 
    115 H115      -74.8699   19.2892  -74.0954 H         1 UNK         0.0793 
    116 H116      -76.3875   19.7528  -73.3390 H         1 UNK         0.0793 
    117 H117      -78.2214   20.2070  -74.9431 H         1 UNK         0.3047 
    118 H118      -79.9808   20.6844  -77.6268 H         1 UNK         0.0822 
    119 H119      -81.4904   20.7432  -75.6407 H         1 UNK         0.0807 
    120 H120      -80.1531   21.2198  -74.6060 H         1 UNK         0.0807 
    121 H121      -80.1610   19.6360  -75.3863 H         1 UNK         0.0807 
    122 H122      -80.7608   22.7456  -77.8373 H         1 UNK         0.2946 
    123 H123      -80.0310   25.5267  -77.4562 H         1 UNK         0.1144 
    124 H124      -82.5742   25.7132  -77.5268 H         1 UNK         0.0793 
    125 H125      -82.6918   24.2349  -76.5808 H         1 UNK         0.0793 
    126 H126      -82.0200   24.2088  -78.2094 H         1 UNK         0.0793 
    127 H127      -80.4348   25.4500  -74.6709 H         1 UNK         0.2896 
@<TRIPOS>BOND
     1    1    2 1    
     2    1   67 1    
     3    1   68 1    
     4    1   69 1    
     5    2    3 2    
     6    2    4 am   BACKBONE|DICT|INTERRES
     7    4    5 1    
     8    4   70 1    
     9    5    6 1    
    10    5   65 1    
    11    5   71 1    
    12    6    7 1    
    13    6   72 1    
    14    6   73 1    
    15    7    8 1    
    16    8    9 1    
    17    8   74 1    
    18    8   75 1    
    19    9   10 ar   
    20    9   14 ar   
    21   10   11 ar   
    22   10   76 1    
    23   11   12 ar   
    24   11   48 1    
    25   12   13 ar   
    26   12   77 1    
    27   13   14 ar   
    28   13   15 1    
    29   14   78 1    
    30   15   16 1    
    31   15   79 1    
    32   15   80 1    
    33   16   17 1    
    34   17   18 1    
    35   17   81 1    
    36   17   82 1    
    37   18   19 1    
    38   18   22 1    
    39   18   83 1    
    40   19   20 am   BACKBONE|DICT|INTERRES
    41   19   21 2    
    42   20   84 1    
    43   20   85 1    
    44   22   23 am   BACKBONE|DICT|INTERRES
    45   22   86 1    
    46   23   24 2    
    47   23   25 1    
    48   25   26 1    
    49   25   27 1    
    50   25   87 1    
    51   26   88 1    
    52   26   89 1    
    53   26   90 1    
    54   27   28 am   BACKBONE|DICT|INTERRES
    55   27   91 1    
    56   28   29 2    
    57   28   30 1    
    58   30   31 1    
    59   30   32 1    
    60   30   92 1    
    61   31   93 1    
    62   31   94 1    
    63   31   95 1    
    64   32   33 am   BACKBONE|DICT|INTERRES
    65   32   96 1    
    66   33   34 2    
    67   33   35 1    
    68   35   36 1    
    69   35   37 1    
    70   35   97 1    
    71   36   98 1    
    72   36   99 1    
    73   36  100 1    
    74   37   38 am   BACKBONE|DICT|INTERRES
    75   37  101 1    
    76   38   39 2    
    77   38   40 1    
    78   40   41 1    
    79   40   42 1    
    80   40  102 1    
    81   41  103 1    
    82   41  104 1    
    83   41  105 1    
    84   42   43 am   BACKBONE|DICT|INTERRES
    85   42  106 1    
    86   43   44 2    
    87   43   45 1    
    88   45   46 1    
    89   45   49 1    
    90   45  107 1    
    91   46   47 1    
    92   46  108 1    
    93   46  109 1    
    94   47   48 1    
    95   48  110 1    
    96   48  111 1    
    97   49   50 am   BACKBONE|DICT|INTERRES
    98   49  112 1    
    99   50   51 2    
   100   50   52 1    
   101   52   53 1    
   102   52   54 1    
   103   52  113 1    
   104   53  114 1    
   105   53  115 1    
   106   53  116 1    
   107   54   55 am   BACKBONE|DICT|INTERRES
   108   54  117 1    
   109   55   56 2    
   110   55   57 1    
   111   57   58 1    
   112   57   59 1    
   113   57  118 1    
   114   58  119 1    
   115   58  120 1    
   116   58  121 1    
   117   59   60 am   BACKBONE|DICT|INTERRES
   118   59  122 1    
   119   60   61 2    
   120   60   62 1    
   121   62   63 1    
   122   62   64 1    
   123   62  123 1    
   124   63  124 1    
   125   63  125 1    
   126   63  126 1    
   127   64   65 am   BACKBONE|DICT|INTERRES
   128   64  127 1    
   129   65   66 2    
@<TRIPOS>SUBSTRUCTURE
     1 UNK         1 GROUP             0       ****    0 ROOT    
