@<TRIPOS>MOLECULE
3R135
127   129    1
SMALL
USER_CHARGES


@<TRIPOS>ATOM
      1 CA        -85.0695   28.2863  -73.9104 C.3       0 UNK        -0.1998 
      2 C         -83.5819   28.1409  -73.6280 C.2       0 UNK         0.4909 
      3 O         -82.8228   29.0866  -73.8399 O.2       0 UNK        -0.5240 
      4 N         -83.1565   26.9607  -73.1552 N.am      1 UNK        -0.4739 
      5 CA        -81.7565   26.6476  -72.8353 C.3       1 UNK         0.0864 
      6 C6        -81.6648   25.5889  -71.7068 C.3       11 UNK        -0.0881 
      7 S7        -80.0835   25.5391  -70.7876 S.3       11 UNK        -0.2682 
      8 C8        -79.8977   27.2277  -70.1150 C.3       11 UNK         0.0289 
      9 C9        -78.8156   28.0077  -70.8546 C.ar      11 UNK        -0.0687 
     10 C10       -79.1460   29.0388  -71.7410 C.ar      11 UNK        -0.0823 
     11 C11       -78.1507   29.7182  -72.4511 C.ar      11 UNK        -0.0830 
     12 C12       -76.8100   29.3843  -72.2379 C.ar      11 UNK        -0.1021 
     13 C13       -76.4638   28.3691  -71.3420 C.ar      11 UNK        -0.0753 
     14 C14       -77.4695   27.6903  -70.6487 C.ar      11 UNK        -0.0933 
     15 C15       -75.0052   27.9876  -71.1543 C.3       11 UNK         0.0166 
     16 S16       -74.0879   29.2913  -70.2787 S.3       11 UNK        -0.2615 
     17 C17       -72.3707   28.7091  -70.4809 C.3       11 UNK        -0.0865 
     18 CA        -71.6436   29.4259  -71.6481 C.3       10 UNK         0.0862 
     19 C         -70.1352   29.0671  -71.6610 C.2       10 UNK         0.5551 
     20 N         -69.2686   29.9932  -71.2756 N.am      10 UNK        -0.7319 
     21 O         -69.7540   27.9408  -71.9725 O.2       10 UNK        -0.5018 
     22 N         -72.2645   29.1065  -72.9387 N.am      10 UNK        -0.4509 
     23 C         -72.1531   29.8388  -74.0526 C.2       10 UNK         0.4899 
     24 O         -71.5765   30.9266  -74.1038 O.2       10 UNK        -0.4839 
     25 CA        -72.8100   29.2442  -75.3157 C.3       9 UNK         0.0222 
     26 CB        -72.3640   29.9496  -76.6149 C.3       9 UNK        -0.1966 
     27 N         -72.6328   27.7874  -75.4153 N.am      9 UNK        -0.4218 
     28 C         -71.4653   27.1279  -75.5005 C.2       9 UNK         0.5020 
     29 O         -70.3637   27.6718  -75.5834 O.2       9 UNK        -0.5274 
     30 CA        -71.5342   25.5973  -75.4761 C.3       8 UNK         0.0270 
     31 CB        -71.6842   25.0945  -74.0290 C.3       8 UNK        -0.1976 
     32 N         -72.6475   25.0940  -76.2814 N.am      8 UNK        -0.4313 
     33 C         -72.5171   24.5064  -77.4766 C.2       8 UNK         0.5041 
     34 O         -71.4439   24.3692  -78.0659 O.2       8 UNK        -0.5577 
     35 CA        -73.7969   23.9425  -78.1091 C.3       7 UNK         0.0284 
     36 CB        -74.2803   22.7040  -77.3382 C.3       7 UNK        -0.1958 
     37 N         -74.8767   24.9273  -78.1869 N.am      7 UNK        -0.4454 
     38 C         -74.9770   25.8591  -79.1449 C.2       7 UNK         0.5089 
     39 O         -74.1315   26.0359  -80.0224 O.2       7 UNK        -0.5125 
     40 CA        -76.2532   26.7169  -79.1513 C.3       6 UNK         0.0408 
     41 CB        -77.3325   26.0584  -80.0253 C.3       6 UNK        -0.1791 
     42 N         -76.7808   26.9416  -77.8027 N.am      6 UNK        -0.4762 
     43 C         -76.3334   27.9144  -76.9947 C.2       6 UNK         0.5007 
     44 O         -75.4743   28.7288  -77.3292 O.2       6 UNK        -0.5032 
     45 CA        -76.9174   27.9849  -75.5696 C.3       5 UNK         0.0783 
     46 C46       -78.1934   28.8694  -75.5156 C.3       11 UNK        -0.0857 
     47 S47       -77.7844   30.5994  -75.1003 S.3       11 UNK        -0.2512 
     48 C48       -78.5385   30.8077  -73.4476 C.3       11 UNK         0.0225 
     49 N         -77.1164   26.6666  -74.9604 N.am      5 UNK        -0.4615 
     50 C         -76.1288   25.8074  -74.6708 C.2       4 UNK         0.5053 
     51 O         -74.9459   26.0148  -74.9481 O.2       4 UNK        -0.5105 
     52 CA        -76.5098   24.4950  -73.9721 C.3       4 UNK         0.0263 
     53 CB        -76.6139   24.7071  -72.4565 C.3       4 UNK        -0.1981 
     54 N         -77.7823   23.9801  -74.4768 N.am      4 UNK        -0.4224 
     55 C         -77.9148   22.8934  -75.2501 C.2       3 UNK         0.4895 
     56 O         -76.9880   22.1349  -75.5322 O.2       3 UNK        -0.5091 
     57 CA        -79.3128   22.5908  -75.8240 C.3       3 UNK         0.0250 
     58 CB        -80.0220   21.5285  -74.9685 C.3       3 UNK        -0.1996 
     59 N         -80.1847   23.7617  -75.9509 N.am      3 UNK        -0.4254 
     60 C         -79.9248   24.8525  -76.6855 C.2       2 UNK         0.5004 
     61 O         -78.9149   24.9993  -77.3732 O.2       2 UNK        -0.5226 
     62 CA        -80.9288   26.0108  -76.5750 C.3       2 UNK         0.0269 
     63 CB        -82.0183   25.8820  -77.6505 C.3       2 UNK        -0.1926 
     64 N         -81.5595   26.1592  -75.2553 N.am      2 UNK        -0.4687 
     65 C         -80.9155   26.2933  -74.0838 C.2       1 UNK         0.5165 
     66 O         -79.6956   26.1638  -73.9768 O.2       1 UNK        -0.5079 
     67 H67       -85.2305   28.5219  -74.9621 H         1 UNK         0.0900 
     68 H68       -85.4867   29.0959  -73.3122 H         1 UNK         0.0900 
     69 H69       -85.6204   27.3750  -73.6784 H         1 UNK         0.0900 
     70 H70       -83.8238   26.2173  -72.9998 H         1 UNK         0.2959 
     71 H71       -81.3203   27.5650  -72.4539 H         1 UNK         0.1079 
     72 H72       -82.4436   25.7742  -70.9649 H         1 UNK         0.0837 
     73 H73       -81.8679   24.5911  -72.1002 H         1 UNK         0.0837 
     74 H74       -79.6212   27.1519  -69.0624 H         1 UNK         0.0685 
     75 H75       -80.8521   27.7555  -70.1359 H         1 UNK         0.0685 
     76 H76       -80.1800   29.3158  -71.8872 H         1 UNK         0.1434 
     77 H77       -76.0329   29.9087  -72.7769 H         1 UNK         0.1329 
     78 H78       -77.2092   26.8950  -69.9636 H         1 UNK         0.1335 
     79 H79       -74.5631   27.8070  -72.1342 H         1 UNK         0.0680 
     80 H80       -74.9155   27.0541  -70.5966 H         1 UNK         0.0680 
     81 H81       -71.8525   28.9036  -69.5397 H         1 UNK         0.1032 
     82 H82       -72.3534   27.6252  -70.6118 H         1 UNK         0.1032 
     83 H83       -71.7393   30.5021  -71.4862 H         1 UNK         0.0461 
     84 H84       -68.2857   29.7699  -71.2622 H         1 UNK         0.3453 
     85 H85       -69.5761   30.9171  -71.0133 H         1 UNK         0.3453 
     86 H86       -72.7076   28.2043  -73.0040 H         1 UNK         0.2984 
     87 H87       -73.8809   29.4139  -75.2026 H         1 UNK         0.0554 
     88 H88       -72.6401   31.0045  -76.5993 H         1 UNK         0.0847 
     89 H89       -72.8382   29.5055  -77.4900 H         1 UNK         0.0847 
     90 H90       -71.2842   29.8989  -76.7566 H         1 UNK         0.0847 
     91 H91       -73.4819   27.2342  -75.3402 H         1 UNK         0.3141 
     92 H92       -70.5853   25.2180  -75.8619 H         1 UNK         0.0743 
     93 H93       -70.8723   25.4657  -73.4013 H         1 UNK         0.0784 
     94 H94       -72.6212   25.4205  -73.5761 H         1 UNK         0.0784 
     95 H95       -71.6549   24.0057  -73.9858 H         1 UNK         0.0784 
     96 H96       -73.5773   25.2163  -75.8875 H         1 UNK         0.3213 
     97 H97       -73.5503   23.6209  -79.1238 H         1 UNK         0.0855 
     98 H98       -74.5385   22.9416  -76.3059 H         1 UNK         0.0814 
     99 H99       -73.5058   21.9365  -77.3096 H         1 UNK         0.0814 
    100 H100      -75.1579   22.2595  -77.8081 H         1 UNK         0.0814 
    101 H101      -75.6171   24.8627  -77.5046 H         1 UNK         0.3105 
    102 H102      -76.0068   27.6794  -79.6052 H         1 UNK         0.0547 
    103 H103      -77.5852   25.0574  -79.6739 H         1 UNK         0.0837 
    104 H104      -78.2483   26.6493  -80.0404 H         1 UNK         0.0837 
    105 H105      -76.9910   25.9620  -81.0567 H         1 UNK         0.0837 
    106 H106      -77.5043   26.3022  -77.4804 H         1 UNK         0.3020 
    107 H107      -76.1483   28.4582  -74.9560 H         1 UNK         0.1245 
    108 H108      -78.8937   28.4989  -74.7684 H         1 UNK         0.0781 
    109 H109      -78.7474   28.8511  -76.4560 H         1 UNK         0.0781 
    110 H110      -78.2407   31.7762  -73.0442 H         1 UNK         0.0836 
    111 H111      -79.6221   30.8474  -73.5714 H         1 UNK         0.0836 
    112 H112      -78.0609   26.4558  -74.6458 H         1 UNK         0.3022 
    113 H113      -75.7045   23.7810  -74.1561 H         1 UNK         0.0747 
    114 H114      -75.6844   25.1069  -72.0504 H         1 UNK         0.0793 
    115 H115      -76.8197   23.7701  -71.9391 H         1 UNK         0.0793 
    116 H116      -77.4129   25.4054  -72.2088 H         1 UNK         0.0793 
    117 H117      -78.6005   24.5540  -74.2980 H         1 UNK         0.3047 
    118 H118      -79.1660   22.1844  -76.8269 H         1 UNK         0.0822 
    119 H119      -79.4112   20.6290  -74.8773 H         1 UNK         0.0807 
    120 H120      -80.9713   21.2282  -75.4126 H         1 UNK         0.0807 
    121 H121      -80.2209   21.8907  -73.9589 H         1 UNK         0.0807 
    122 H122      -81.0366   23.7535  -75.4093 H         1 UNK         0.2946 
    123 H123      -80.3708   26.9292  -76.7677 H         1 UNK         0.1144 
    124 H124      -81.5773   25.7903  -78.6444 H         1 UNK         0.0793 
    125 H125      -82.6664   26.7585  -77.6669 H         1 UNK         0.0793 
    126 H126      -82.6441   25.0034  -77.4889 H         1 UNK         0.0793 
    127 H127      -82.5621   26.2779  -75.2472 H         1 UNK         0.2896 
@<TRIPOS>BOND
     1    1    2 1    
     2    1   67 1    
     3    1   68 1    
     4    1   69 1    
     5    2    3 2    
     6    2    4 am   BACKBONE|DICT|INTERRES
     7    4    5 1    
     8    4   70 1    
     9    5    6 1    
    10    5   65 1    
    11    5   71 1    
    12    6    7 1    
    13    6   72 1    
    14    6   73 1    
    15    7    8 1    
    16    8    9 1    
    17    8   74 1    
    18    8   75 1    
    19    9   10 ar   
    20    9   14 ar   
    21   10   11 ar   
    22   10   76 1    
    23   11   12 ar   
    24   11   48 1    
    25   12   13 ar   
    26   12   77 1    
    27   13   14 ar   
    28   13   15 1    
    29   14   78 1    
    30   15   16 1    
    31   15   79 1    
    32   15   80 1    
    33   16   17 1    
    34   17   18 1    
    35   17   81 1    
    36   17   82 1    
    37   18   19 1    
    38   18   22 1    
    39   18   83 1    
    40   19   20 am   BACKBONE|DICT|INTERRES
    41   19   21 2    
    42   20   84 1    
    43   20   85 1    
    44   22   23 am   BACKBONE|DICT|INTERRES
    45   22   86 1    
    46   23   24 2    
    47   23   25 1    
    48   25   26 1    
    49   25   27 1    
    50   25   87 1    
    51   26   88 1    
    52   26   89 1    
    53   26   90 1    
    54   27   28 am   BACKBONE|DICT|INTERRES
    55   27   91 1    
    56   28   29 2    
    57   28   30 1    
    58   30   31 1    
    59   30   32 1    
    60   30   92 1    
    61   31   93 1    
    62   31   94 1    
    63   31   95 1    
    64   32   33 am   BACKBONE|DICT|INTERRES
    65   32   96 1    
    66   33   34 2    
    67   33   35 1    
    68   35   36 1    
    69   35   37 1    
    70   35   97 1    
    71   36   98 1    
    72   36   99 1    
    73   36  100 1    
    74   37   38 am   BACKBONE|DICT|INTERRES
    75   37  101 1    
    76   38   39 2    
    77   38   40 1    
    78   40   41 1    
    79   40   42 1    
    80   40  102 1    
    81   41  103 1    
    82   41  104 1    
    83   41  105 1    
    84   42   43 am   BACKBONE|DICT|INTERRES
    85   42  106 1    
    86   43   44 2    
    87   43   45 1    
    88   45   46 1    
    89   45   49 1    
    90   45  107 1    
    91   46   47 1    
    92   46  108 1    
    93   46  109 1    
    94   47   48 1    
    95   48  110 1    
    96   48  111 1    
    97   49   50 am   BACKBONE|DICT|INTERRES
    98   49  112 1    
    99   50   51 2    
   100   50   52 1    
   101   52   53 1    
   102   52   54 1    
   103   52  113 1    
   104   53  114 1    
   105   53  115 1    
   106   53  116 1    
   107   54   55 am   BACKBONE|DICT|INTERRES
   108   54  117 1    
   109   55   56 2    
   110   55   57 1    
   111   57   58 1    
   112   57   59 1    
   113   57  118 1    
   114   58  119 1    
   115   58  120 1    
   116   58  121 1    
   117   59   60 am   BACKBONE|DICT|INTERRES
   118   59  122 1    
   119   60   61 2    
   120   60   62 1    
   121   62   63 1    
   122   62   64 1    
   123   62  123 1    
   124   63  124 1    
   125   63  125 1    
   126   63  126 1    
   127   64   65 am   BACKBONE|DICT|INTERRES
   128   64  127 1    
   129   65   66 2    
@<TRIPOS>SUBSTRUCTURE
     1 UNK         1 GROUP             0       ****    0 ROOT    
