@<TRIPOS>MOLECULE
3R135
127   129    1
SMALL
USER_CHARGES


@<TRIPOS>ATOM
      1 CA        -84.6218   27.7847  -78.2836 C.3       0 UNK        -0.1998 
      2 C         -83.3503   27.4019  -77.5413 C.2       0 UNK         0.4909 
      3 O         -82.8117   26.3174  -77.7673 O.2       0 UNK        -0.5240 
      4 N         -82.8612   28.2851  -76.6603 N.am      1 UNK        -0.4739 
      5 CA        -81.6839   28.0516  -75.8190 C.3       1 UNK         0.0864 
      6 C6        -81.1675   29.3703  -75.1858 C.3       11 UNK        -0.0881 
      7 S7        -79.3623   29.3448  -74.9493 S.3       11 UNK        -0.2682 
      8 C8        -79.2122   29.2401  -73.1369 C.3       11 UNK         0.0289 
      9 C9        -77.7891   28.8909  -72.7184 C.ar      11 UNK        -0.0687 
     10 C10       -77.5409   27.7665  -71.9245 C.ar      11 UNK        -0.0823 
     11 C11       -76.2335   27.4141  -71.5744 C.ar      11 UNK        -0.0830 
     12 C12       -75.1684   28.2046  -72.0173 C.ar      11 UNK        -0.1021 
     13 C13       -75.4041   29.3459  -72.7903 C.ar      11 UNK        -0.0753 
     14 C14       -76.7157   29.6881  -73.1285 C.ar      11 UNK        -0.0933 
     15 C15       -74.2482   30.1897  -73.3012 C.3       11 UNK         0.0166 
     16 S16       -73.7688   31.4960  -72.1313 S.3       11 UNK        -0.2615 
     17 C17       -72.5584   30.6315  -71.0722 C.3       11 UNK        -0.0865 
     18 CA        -71.0972   30.8413  -71.5523 C.3       10 UNK         0.0862 
     19 C         -70.0746   30.3616  -70.4816 C.2       10 UNK         0.5551 
     20 N         -69.1643   29.4450  -70.7898 N.am      10 UNK        -0.7319 
     21 O         -70.0976   30.8427  -69.3513 O.2       10 UNK        -0.5018 
     22 N         -70.8728   30.2393  -72.8777 N.am      10 UNK        -0.4509 
     23 C         -70.1914   30.7950  -73.8826 C.2       10 UNK         0.4899 
     24 O         -69.7093   31.9272  -73.8351 O.2       10 UNK        -0.4839 
     25 CA        -69.9937   29.9644  -75.1675 C.3       9 UNK         0.0222 
     26 CB        -68.6265   29.2537  -75.1401 C.3       9 UNK        -0.1966 
     27 N         -71.0645   29.0161  -75.5216 N.am      9 UNK        -0.4218 
     28 C         -71.4903   27.9198  -74.8798 C.2       9 UNK         0.5020 
     29 O         -71.1079   27.5989  -73.7526 O.2       9 UNK        -0.5274 
     30 CA        -72.5232   27.0472  -75.6249 C.3       8 UNK         0.0270 
     31 CB        -72.8244   25.7344  -74.8800 C.3       8 UNK        -0.1976 
     32 N         -73.7864   27.7406  -75.9121 N.am      8 UNK        -0.4313 
     33 C         -73.9531   28.6904  -76.8457 C.2       8 UNK         0.5041 
     34 O         -73.0232   29.1204  -77.5330 O.2       8 UNK        -0.5577 
     35 CA        -75.3708   29.2726  -77.0407 C.3       7 UNK         0.0284 
     36 CB        -75.5683   29.9072  -78.4340 C.3       7 UNK        -0.1958 
     37 N         -76.4508   28.3257  -76.7442 N.am      7 UNK        -0.4454 
     38 C         -76.7062   27.1573  -77.3506 C.2       7 UNK         0.5089 
     39 O         -76.0720   26.7062  -78.3061 O.2       7 UNK        -0.5125 
     40 CA        -77.8633   26.3392  -76.7461 C.3       6 UNK         0.0408 
     41 CB        -78.8392   25.8667  -77.8357 C.3       6 UNK        -0.1791 
     42 N         -77.4111   25.1996  -75.9385 N.am      6 UNK        -0.4762 
     43 C         -76.5402   25.2726  -74.9144 C.2       6 UNK         0.5007 
     44 O         -75.9826   26.3181  -74.5872 O.2       6 UNK        -0.5032 
     45 CA        -76.2292   23.9920  -74.1083 C.3       5 UNK         0.0783 
     46 C46       -76.5761   24.1518  -72.6027 C.3       11 UNK        -0.0857 
     47 S47       -75.1871   24.8239  -71.6261 S.3       11 UNK        -0.2512 
     48 C48       -75.9688   26.1908  -70.7057 C.3       11 UNK         0.0225 
     49 N         -76.8774   22.8080  -74.6779 N.am      5 UNK        -0.4615 
     50 C         -76.3299   22.0207  -75.6144 C.2       4 UNK         0.5053 
     51 O         -75.2032   22.1981  -76.0777 O.2       4 UNK        -0.5105 
     52 CA        -77.1676   20.8351  -76.1327 C.3       4 UNK         0.0263 
     53 CB        -76.7106   19.5261  -75.4685 C.3       4 UNK        -0.1981 
     54 N         -78.6125   20.9895  -75.9408 N.am      4 UNK        -0.4224 
     55 C         -79.3667   21.9338  -76.5188 C.2       3 UNK         0.4895 
     56 O         -78.9201   22.7732  -77.2991 O.2       3 UNK        -0.5091 
     57 CA        -80.8592   21.9861  -76.1412 C.3       3 UNK         0.0250 
     58 CB        -81.3612   20.7367  -75.3806 C.3       3 UNK        -0.1996 
     59 N         -81.1945   23.2037  -75.3909 N.am      3 UNK        -0.4254 
     60 C         -80.6280   23.6333  -74.2528 C.2       2 UNK         0.5004 
     61 O         -79.6620   23.0901  -73.7117 O.2       2 UNK        -0.5226 
     62 CA        -81.2411   24.8998  -73.6423 C.3       2 UNK         0.0269 
     63 CB        -80.6387   25.2712  -72.2761 C.3       2 UNK        -0.1926 
     64 N         -81.0856   26.0148  -74.5750 N.am      2 UNK        -0.4687 
     65 C         -81.9928   26.9824  -74.7500 C.2       1 UNK         0.5165 
     66 O         -83.0426   27.0593  -74.1062 O.2       1 UNK        -0.5079 
     67 H67       -84.9810   28.7725  -77.9951 H         1 UNK         0.0900 
     68 H68       -85.4101   27.0623  -78.0735 H         1 UNK         0.0900 
     69 H69       -84.4415   27.7899  -79.3582 H         1 UNK         0.0900 
     70 H70       -83.3628   29.1451  -76.4894 H         1 UNK         0.2959 
     71 H71       -80.9112   27.6602  -76.4843 H         1 UNK         0.1079 
     72 H72       -81.3701   30.2103  -75.8524 H         1 UNK         0.0837 
     73 H73       -81.6808   29.6097  -74.2519 H         1 UNK         0.0837 
     74 H74       -79.4986   30.1941  -72.6924 H         1 UNK         0.0685 
     75 H75       -79.9148   28.4930  -72.7639 H         1 UNK         0.0685 
     76 H76       -78.3657   27.1631  -71.5780 H         1 UNK         0.1434 
     77 H77       -74.1567   27.9171  -71.7695 H         1 UNK         0.1329 
     78 H78       -76.9022   30.5649  -73.7333 H         1 UNK         0.1335 
     79 H79       -73.3963   29.5520  -73.5256 H         1 UNK         0.0680 
     80 H80       -74.5224   30.6653  -74.2426 H         1 UNK         0.0680 
     81 H81       -72.7951   29.5699  -71.0082 H         1 UNK         0.1032 
     82 H82       -72.6883   31.0250  -70.0621 H         1 UNK         0.1032 
     83 H83       -70.9399   31.9189  -71.6271 H         1 UNK         0.0461 
     84 H84       -69.1388   29.0427  -71.7130 H         1 UNK         0.3453 
     85 H85       -68.5037   29.1479  -70.0890 H         1 UNK         0.3453 
     86 H86       -71.1532   29.2682  -72.9920 H         1 UNK         0.2984 
     87 H87       -69.9695   30.6825  -75.9887 H         1 UNK         0.0554 
     88 H88       -68.4171   28.7603  -76.0891 H         1 UNK         0.0847 
     89 H89       -68.5739   28.5011  -74.3528 H         1 UNK         0.0847 
     90 H90       -67.8190   29.9654  -74.9620 H         1 UNK         0.0847 
     91 H91       -71.5409   29.2094  -76.4024 H         1 UNK         0.3141 
     92 H92       -72.0669   26.7747  -76.5789 H         1 UNK         0.0743 
     93 H93       -73.3262   25.9188  -73.9290 H         1 UNK         0.0784 
     94 H94       -73.4582   25.0802  -75.4784 H         1 UNK         0.0784 
     95 H95       -71.9080   25.1834  -74.6648 H         1 UNK         0.0784 
     96 H96       -74.6005   27.4233  -75.3879 H         1 UNK         0.3213 
     97 H97       -75.4689   30.0730  -76.3073 H         1 UNK         0.0855 
     98 H98       -74.8601   30.7203  -78.5985 H         1 UNK         0.0814 
     99 H99       -76.5689   30.3257  -78.5419 H         1 UNK         0.0814 
    100 H100      -75.4190   29.1814  -79.2339 H         1 UNK         0.0814 
    101 H101      -77.0141   28.5548  -75.9347 H         1 UNK         0.3105 
    102 H102      -78.4231   26.9835  -76.0717 H         1 UNK         0.0547 
    103 H103      -79.1944   26.7072  -78.4333 H         1 UNK         0.0837 
    104 H104      -78.3658   25.1607  -78.5191 H         1 UNK         0.0837 
    105 H105      -79.7174   25.3818  -77.4096 H         1 UNK         0.0837 
    106 H106      -77.7818   24.2922  -76.1958 H         1 UNK         0.3020 
    107 H107      -75.1495   23.8475  -74.1850 H         1 UNK         0.1245 
    108 H108      -76.8144   23.1816  -72.1637 H         1 UNK         0.0781 
    109 H109      -77.4692   24.7590  -72.4615 H         1 UNK         0.0781 
    110 H110      -75.3083   26.4790  -69.8867 H         1 UNK         0.0836 
    111 H111      -76.8882   25.8342  -70.2386 H         1 UNK         0.0836 
    112 H112      -77.8265   22.6283  -74.3614 H         1 UNK         0.3022 
    113 H113      -76.9834   20.7564  -77.2063 H         1 UNK         0.0747 
    114 H114      -77.2297   18.6643  -75.8885 H         1 UNK         0.0793 
    115 H115      -75.6425   19.3631  -75.6203 H         1 UNK         0.0793 
    116 H116      -76.8886   19.5360  -74.3924 H         1 UNK         0.0793 
    117 H117      -79.0551   20.3596  -75.2874 H         1 UNK         0.3047 
    118 H118      -81.4057   22.0401  -77.0841 H         1 UNK         0.0822 
    119 H119      -82.4400   20.7823  -75.2308 H         1 UNK         0.0807 
    120 H120      -80.9013   20.6357  -74.3967 H         1 UNK         0.0807 
    121 H121      -81.1597   19.8229  -75.9416 H         1 UNK         0.0807 
    122 H122      -81.9384   23.7630  -75.7861 H         1 UNK         0.2946 
    123 H123      -82.3018   24.6831  -73.4929 H         1 UNK         0.1144 
    124 H124      -80.7392   24.4496  -71.5657 H         1 UNK         0.0793 
    125 H125      -81.1355   26.1395  -71.8431 H         1 UNK         0.0793 
    126 H126      -79.5803   25.4986  -72.3669 H         1 UNK         0.0793 
    127 H127      -80.2484   26.0037  -75.1402 H         1 UNK         0.2896 
@<TRIPOS>BOND
     1    1    2 1    
     2    1   67 1    
     3    1   68 1    
     4    1   69 1    
     5    2    3 2    
     6    2    4 am   BACKBONE|DICT|INTERRES
     7    4    5 1    
     8    4   70 1    
     9    5    6 1    
    10    5   65 1    
    11    5   71 1    
    12    6    7 1    
    13    6   72 1    
    14    6   73 1    
    15    7    8 1    
    16    8    9 1    
    17    8   74 1    
    18    8   75 1    
    19    9   10 ar   
    20    9   14 ar   
    21   10   11 ar   
    22   10   76 1    
    23   11   12 ar   
    24   11   48 1    
    25   12   13 ar   
    26   12   77 1    
    27   13   14 ar   
    28   13   15 1    
    29   14   78 1    
    30   15   16 1    
    31   15   79 1    
    32   15   80 1    
    33   16   17 1    
    34   17   18 1    
    35   17   81 1    
    36   17   82 1    
    37   18   19 1    
    38   18   22 1    
    39   18   83 1    
    40   19   20 am   BACKBONE|DICT|INTERRES
    41   19   21 2    
    42   20   84 1    
    43   20   85 1    
    44   22   23 am   BACKBONE|DICT|INTERRES
    45   22   86 1    
    46   23   24 2    
    47   23   25 1    
    48   25   26 1    
    49   25   27 1    
    50   25   87 1    
    51   26   88 1    
    52   26   89 1    
    53   26   90 1    
    54   27   28 am   BACKBONE|DICT|INTERRES
    55   27   91 1    
    56   28   29 2    
    57   28   30 1    
    58   30   31 1    
    59   30   32 1    
    60   30   92 1    
    61   31   93 1    
    62   31   94 1    
    63   31   95 1    
    64   32   33 am   BACKBONE|DICT|INTERRES
    65   32   96 1    
    66   33   34 2    
    67   33   35 1    
    68   35   36 1    
    69   35   37 1    
    70   35   97 1    
    71   36   98 1    
    72   36   99 1    
    73   36  100 1    
    74   37   38 am   BACKBONE|DICT|INTERRES
    75   37  101 1    
    76   38   39 2    
    77   38   40 1    
    78   40   41 1    
    79   40   42 1    
    80   40  102 1    
    81   41  103 1    
    82   41  104 1    
    83   41  105 1    
    84   42   43 am   BACKBONE|DICT|INTERRES
    85   42  106 1    
    86   43   44 2    
    87   43   45 1    
    88   45   46 1    
    89   45   49 1    
    90   45  107 1    
    91   46   47 1    
    92   46  108 1    
    93   46  109 1    
    94   47   48 1    
    95   48  110 1    
    96   48  111 1    
    97   49   50 am   BACKBONE|DICT|INTERRES
    98   49  112 1    
    99   50   51 2    
   100   50   52 1    
   101   52   53 1    
   102   52   54 1    
   103   52  113 1    
   104   53  114 1    
   105   53  115 1    
   106   53  116 1    
   107   54   55 am   BACKBONE|DICT|INTERRES
   108   54  117 1    
   109   55   56 2    
   110   55   57 1    
   111   57   58 1    
   112   57   59 1    
   113   57  118 1    
   114   58  119 1    
   115   58  120 1    
   116   58  121 1    
   117   59   60 am   BACKBONE|DICT|INTERRES
   118   59  122 1    
   119   60   61 2    
   120   60   62 1    
   121   62   63 1    
   122   62   64 1    
   123   62  123 1    
   124   63  124 1    
   125   63  125 1    
   126   63  126 1    
   127   64   65 am   BACKBONE|DICT|INTERRES
   128   64  127 1    
   129   65   66 2    
@<TRIPOS>SUBSTRUCTURE
     1 UNK         1 GROUP             0       ****    0 ROOT    
