@<TRIPOS>MOLECULE
3R135
127   129    1
SMALL
USER_CHARGES


@<TRIPOS>ATOM
      1 CA        -77.6188   26.9027  -73.7733 C.3       0 UNK        -0.1998 
      2 C         -78.1024   26.2141  -72.5138 C.2       0 UNK         0.4909 
      3 O         -77.5848   25.1607  -72.1414 O.2       0 UNK        -0.5240 
      4 N         -79.1094   26.7964  -71.8568 N.am      1 UNK        -0.4739 
      5 CA        -79.8024   26.2011  -70.7140 C.3       1 UNK         0.0864 
      6 C6        -80.6816   27.2301  -69.9662 C.3       11 UNK        -0.0881 
      7 S7        -79.6775   28.5705  -69.2397 S.3       11 UNK        -0.2682 
      8 C8        -80.3033   30.0404  -70.1116 C.3       11 UNK         0.0289 
      9 C9        -79.7986   30.1377  -71.5457 C.ar      11 UNK        -0.0687 
     10 C10       -80.6258   29.7721  -72.6133 C.ar      11 UNK        -0.0823 
     11 C11       -80.1997   29.9428  -73.9350 C.ar      11 UNK        -0.0830 
     12 C12       -78.9359   30.4864  -74.1800 C.ar      11 UNK        -0.1021 
     13 C13       -78.0883   30.8297  -73.1239 C.ar      11 UNK        -0.0753 
     14 C14       -78.5235   30.6512  -71.8072 C.ar      11 UNK        -0.0933 
     15 C15       -76.7204   31.4259  -73.4230 C.3       11 UNK         0.0166 
     16 S16       -75.6017   30.1987  -74.1681 S.3       11 UNK        -0.2615 
     17 C17       -75.0051   29.2895  -72.6991 C.3       11 UNK        -0.0865 
     18 CA        -73.4706   29.4088  -72.5050 C.3       10 UNK         0.0862 
     19 C         -73.0276   28.6565  -71.2145 C.2       10 UNK         0.5551 
     20 N         -72.2841   27.5583  -71.2985 N.am      10 UNK        -0.7319 
     21 O         -73.3688   29.0827  -70.1142 O.2       10 UNK        -0.5018 
     22 N         -72.7508   29.0086  -73.7227 N.am      10 UNK        -0.4509 
     23 C         -71.4545   29.2205  -73.9783 C.2       10 UNK         0.4899 
     24 O         -70.7135   29.8870  -73.2542 O.2       10 UNK        -0.4839 
     25 CA        -70.8991   28.5624  -75.2599 C.3       9 UNK         0.0222 
     26 CB        -69.3834   28.2856  -75.1742 C.3       9 UNK        -0.1966 
     27 N         -71.6262   27.3463  -75.6591 N.am      9 UNK        -0.4218 
     28 C         -71.7959   26.2264  -74.9325 C.2       9 UNK         0.5020 
     29 O         -71.3373   26.0767  -73.7985 O.2       9 UNK        -0.5274 
     30 CA        -72.6694   25.1020  -75.5250 C.3       8 UNK         0.0270 
     31 CB        -73.9686   24.9658  -74.7176 C.3       8 UNK        -0.1976 
     32 N         -73.0126   25.2981  -76.9359 N.am      8 UNK        -0.4313 
     33 C         -72.1567   25.1195  -77.9522 C.2       8 UNK         0.5041 
     34 O         -71.0117   24.6887  -77.8097 O.2       8 UNK        -0.5577 
     35 CA        -72.6325   25.5155  -79.3617 C.3       7 UNK         0.0284 
     36 CB        -73.0718   24.2764  -80.1582 C.3       7 UNK        -0.1958 
     37 N         -73.6996   26.5238  -79.3905 N.am      7 UNK        -0.4454 
     38 C         -73.5743   27.7860  -78.9530 C.2       7 UNK         0.5089 
     39 O         -72.5857   28.2120  -78.3559 O.2       7 UNK        -0.5125 
     40 CA        -74.7744   28.7068  -79.1868 C.3       6 UNK         0.0408 
     41 CB        -75.0977   28.8507  -80.6888 C.3       6 UNK        -0.1791 
     42 N         -75.9109   28.1888  -78.4326 N.am      6 UNK        -0.4762 
     43 C         -77.0652   28.8154  -78.1885 C.2       6 UNK         0.5007 
     44 O         -77.3411   29.9223  -78.6544 O.2       6 UNK        -0.5032 
     45 CA        -78.0725   28.0884  -77.2616 C.3       5 UNK         0.0783 
     46 C46       -79.4672   28.7717  -77.2584 C.3       11 UNK        -0.0857 
     47 S47       -80.5883   28.0910  -75.9840 S.3       11 UNK        -0.2512 
     48 C48       -81.1251   29.5880  -75.0922 C.3       11 UNK         0.0225 
     49 N         -78.2031   26.6486  -77.5421 N.am      5 UNK        -0.4615 
     50 C         -77.3119   25.6793  -77.3039 C.2       4 UNK         0.5053 
     51 O         -76.1658   25.8780  -76.8918 O.2       4 UNK        -0.5105 
     52 CA        -77.7597   24.2473  -77.6360 C.3       4 UNK         0.0263 
     53 CB        -76.9231   23.6798  -78.7925 C.3       4 UNK        -0.1981 
     54 N         -77.6422   23.3579  -76.4797 N.am      4 UNK        -0.4224 
     55 C         -78.4026   23.4243  -75.3784 C.2       3 UNK         0.4895 
     56 O         -79.3239   24.2314  -75.2368 O.2       3 UNK        -0.5091 
     57 CA        -78.0920   22.3957  -74.2741 C.3       3 UNK         0.0250 
     58 CB        -76.5978   22.3810  -73.8992 C.3       3 UNK        -0.1996 
     59 N         -78.8652   22.6778  -73.0635 N.am      3 UNK        -0.4254 
     60 C         -80.0151   22.0813  -72.7188 C.2       2 UNK         0.5004 
     61 O         -80.5468   21.1912  -73.3845 O.2       2 UNK        -0.5226 
     62 CA        -80.6827   22.5180  -71.3991 C.3       2 UNK         0.0269 
     63 CB        -80.5075   21.4303  -70.3256 C.3       2 UNK        -0.1926 
     64 N         -80.1472   23.7804  -70.8815 N.am      2 UNK        -0.4687 
     65 C         -80.6224   24.9904  -71.2028 C.2       1 UNK         0.5165 
     66 O         -81.6327   25.1737  -71.8852 O.2       1 UNK        -0.5079 
     67 H67       -76.6058   26.5946  -74.0223 H         1 UNK         0.0900 
     68 H68       -77.6374   27.9850  -73.6623 H         1 UNK         0.0900 
     69 H69       -78.2706   26.6294  -74.6003 H         1 UNK         0.0900 
     70 H70       -79.4913   27.6684  -72.1966 H         1 UNK         0.2959 
     71 H71       -79.0459   25.8432  -70.0115 H         1 UNK         0.1079 
     72 H72       -81.4454   27.6440  -70.6265 H         1 UNK         0.0837 
     73 H73       -81.2204   26.7449  -69.1500 H         1 UNK         0.0837 
     74 H74       -79.9865   30.9278  -69.5617 H         1 UNK         0.0685 
     75 H75       -81.3941   30.0462  -70.0824 H         1 UNK         0.0685 
     76 H76       -81.6148   29.3813  -72.4151 H         1 UNK         0.1434 
     77 H77       -78.5998   30.6458  -75.1936 H         1 UNK         0.1329 
     78 H78       -77.8822   30.9344  -70.9837 H         1 UNK         0.1335 
     79 H79       -76.8421   32.2549  -74.1216 H         1 UNK         0.0680 
     80 H80       -76.2650   31.8490  -72.5262 H         1 UNK         0.0680 
     81 H81       -75.2849   28.2414  -72.8073 H         1 UNK         0.1032 
     82 H82       -75.5316   29.6464  -71.8118 H         1 UNK         0.1032 
     83 H83       -73.2412   30.4625  -72.3346 H         1 UNK         0.0461 
     84 H84       -72.0063   27.0881  -70.4521 H         1 UNK         0.3453 
     85 H85       -71.9882   27.1921  -72.1965 H         1 UNK         0.3453 
     86 H86       -73.2841   28.4733  -74.3900 H         1 UNK         0.2984 
     87 H87       -71.0581   29.2842  -76.0622 H         1 UNK         0.0554 
     88 H88       -69.0106   27.8330  -76.0931 H         1 UNK         0.0847 
     89 H89       -69.1406   27.6166  -74.3480 H         1 UNK         0.0847 
     90 H90       -68.8235   29.2088  -75.0197 H         1 UNK         0.0847 
     91 H91       -72.0468   27.3902  -76.5827 H         1 UNK         0.3141 
     92 H92       -72.1098   24.1689  -75.4320 H         1 UNK         0.0743 
     93 H93       -74.5284   25.9003  -74.7073 H         1 UNK         0.0784 
     94 H94       -74.6131   24.1940  -75.1365 H         1 UNK         0.0784 
     95 H95       -73.7639   24.6956  -73.6807 H         1 UNK         0.0784 
     96 H96       -73.9537   25.6178  -77.1327 H         1 UNK         0.3213 
     97 H97       -71.7694   25.9496  -79.8715 H         1 UNK         0.0855 
     98 H98       -73.9382   23.7914  -79.7114 H         1 UNK         0.0814 
     99 H99       -72.2716   23.5357  -80.1967 H         1 UNK         0.0814 
    100 H100      -73.3213   24.5320  -81.1881 H         1 UNK         0.0814 
    101 H101      -74.5563   26.2612  -79.8555 H         1 UNK         0.3105 
    102 H102      -74.5186   29.6913  -78.7895 H         1 UNK         0.0547 
    103 H103      -74.2063   29.1224  -81.2559 H         1 UNK         0.0837 
    104 H104      -75.4894   27.9272  -81.1156 H         1 UNK         0.0837 
    105 H105      -75.8350   29.6336  -80.8646 H         1 UNK         0.0837 
    106 H106      -75.7701   27.2992  -77.9568 H         1 UNK         0.3020 
    107 H107      -77.6515   28.1973  -76.2611 H         1 UNK         0.1245 
    108 H108      -79.3764   29.8481  -77.1123 H         1 UNK         0.0781 
    109 H109      -79.9476   28.6512  -78.2311 H         1 UNK         0.0781 
    110 H110      -81.2051   30.4318  -75.7790 H         1 UNK         0.0836 
    111 H111      -82.1366   29.4140  -74.7222 H         1 UNK         0.0836 
    112 H112      -79.1089   26.3741  -77.8936 H         1 UNK         0.3022 
    113 H113      -78.8067   24.2628  -77.9468 H         1 UNK         0.0747 
    114 H114      -77.2928   22.7040  -79.1080 H         1 UNK         0.0793 
    115 H115      -76.9567   24.3357  -79.6637 H         1 UNK         0.0793 
    116 H116      -75.8780   23.5647  -78.5059 H         1 UNK         0.0793 
    117 H117      -76.8963   22.6791  -76.5122 H         1 UNK         0.3047 
    118 H118      -78.3566   21.4096  -74.6616 H         1 UNK         0.0822 
    119 H119      -76.4047   21.6855  -73.0822 H         1 UNK         0.0807 
    120 H120      -76.2541   23.3654  -73.5809 H         1 UNK         0.0807 
    121 H121      -75.9726   22.0655  -74.7347 H         1 UNK         0.0807 
    122 H122      -78.5336   23.4647  -72.5134 H         1 UNK         0.2946 
    123 H123      -81.7512   22.6280  -71.5999 H         1 UNK         0.1144 
    124 H124      -80.9231   20.4791  -70.6614 H         1 UNK         0.0793 
    125 H125      -81.0216   21.6978  -69.4022 H         1 UNK         0.0793 
    126 H126      -79.4563   21.2609  -70.0889 H         1 UNK         0.0793 
    127 H127      -79.2965   23.7195  -70.3392 H         1 UNK         0.2896 
@<TRIPOS>BOND
     1    1    2 1    
     2    1   67 1    
     3    1   68 1    
     4    1   69 1    
     5    2    3 2    
     6    2    4 am   BACKBONE|DICT|INTERRES
     7    4    5 1    
     8    4   70 1    
     9    5    6 1    
    10    5   65 1    
    11    5   71 1    
    12    6    7 1    
    13    6   72 1    
    14    6   73 1    
    15    7    8 1    
    16    8    9 1    
    17    8   74 1    
    18    8   75 1    
    19    9   10 ar   
    20    9   14 ar   
    21   10   11 ar   
    22   10   76 1    
    23   11   12 ar   
    24   11   48 1    
    25   12   13 ar   
    26   12   77 1    
    27   13   14 ar   
    28   13   15 1    
    29   14   78 1    
    30   15   16 1    
    31   15   79 1    
    32   15   80 1    
    33   16   17 1    
    34   17   18 1    
    35   17   81 1    
    36   17   82 1    
    37   18   19 1    
    38   18   22 1    
    39   18   83 1    
    40   19   20 am   BACKBONE|DICT|INTERRES
    41   19   21 2    
    42   20   84 1    
    43   20   85 1    
    44   22   23 am   BACKBONE|DICT|INTERRES
    45   22   86 1    
    46   23   24 2    
    47   23   25 1    
    48   25   26 1    
    49   25   27 1    
    50   25   87 1    
    51   26   88 1    
    52   26   89 1    
    53   26   90 1    
    54   27   28 am   BACKBONE|DICT|INTERRES
    55   27   91 1    
    56   28   29 2    
    57   28   30 1    
    58   30   31 1    
    59   30   32 1    
    60   30   92 1    
    61   31   93 1    
    62   31   94 1    
    63   31   95 1    
    64   32   33 am   BACKBONE|DICT|INTERRES
    65   32   96 1    
    66   33   34 2    
    67   33   35 1    
    68   35   36 1    
    69   35   37 1    
    70   35   97 1    
    71   36   98 1    
    72   36   99 1    
    73   36  100 1    
    74   37   38 am   BACKBONE|DICT|INTERRES
    75   37  101 1    
    76   38   39 2    
    77   38   40 1    
    78   40   41 1    
    79   40   42 1    
    80   40  102 1    
    81   41  103 1    
    82   41  104 1    
    83   41  105 1    
    84   42   43 am   BACKBONE|DICT|INTERRES
    85   42  106 1    
    86   43   44 2    
    87   43   45 1    
    88   45   46 1    
    89   45   49 1    
    90   45  107 1    
    91   46   47 1    
    92   46  108 1    
    93   46  109 1    
    94   47   48 1    
    95   48  110 1    
    96   48  111 1    
    97   49   50 am   BACKBONE|DICT|INTERRES
    98   49  112 1    
    99   50   51 2    
   100   50   52 1    
   101   52   53 1    
   102   52   54 1    
   103   52  113 1    
   104   53  114 1    
   105   53  115 1    
   106   53  116 1    
   107   54   55 am   BACKBONE|DICT|INTERRES
   108   54  117 1    
   109   55   56 2    
   110   55   57 1    
   111   57   58 1    
   112   57   59 1    
   113   57  118 1    
   114   58  119 1    
   115   58  120 1    
   116   58  121 1    
   117   59   60 am   BACKBONE|DICT|INTERRES
   118   59  122 1    
   119   60   61 2    
   120   60   62 1    
   121   62   63 1    
   122   62   64 1    
   123   62  123 1    
   124   63  124 1    
   125   63  125 1    
   126   63  126 1    
   127   64   65 am   BACKBONE|DICT|INTERRES
   128   64  127 1    
   129   65   66 2    
@<TRIPOS>SUBSTRUCTURE
     1 UNK         1 GROUP             0       ****    0 ROOT    
