@<TRIPOS>MOLECULE
3R135
127   129    1
SMALL
USER_CHARGES


@<TRIPOS>ATOM
      1 CA        -78.7774   29.2108  -75.1700 C.3       0 UNK        -0.1998 
      2 C         -80.0945   28.5869  -74.7329 C.2       0 UNK         0.4909 
      3 O         -81.0200   28.4815  -75.5371 O.2       0 UNK        -0.5240 
      4 N         -80.1698   28.1767  -73.4604 N.am      1 UNK        -0.4739 
      5 CA        -81.3590   27.6743  -72.7613 C.3       1 UNK         0.0864 
      6 C6        -82.4029   28.7826  -72.4531 C.3       11 UNK        -0.0881 
      7 S7        -81.7254   30.2928  -71.6678 S.3       11 UNK        -0.2682 
      8 C8        -80.9537   29.6903  -70.1254 C.3       11 UNK         0.0289 
      9 C9        -79.4757   29.3626  -70.3114 C.ar      11 UNK        -0.0687 
     10 C10       -79.0177   28.0449  -70.2059 C.ar      11 UNK        -0.0823 
     11 C11       -77.6737   27.7399  -70.4361 C.ar      11 UNK        -0.0830 
     12 C12       -76.7669   28.7718  -70.6900 C.ar      11 UNK        -0.1021 
     13 C13       -77.2054   30.0945  -70.7795 C.ar      11 UNK        -0.0753 
     14 C14       -78.5608   30.3836  -70.5927 C.ar      11 UNK        -0.0933 
     15 C15       -76.2130   31.2100  -71.0704 C.3       11 UNK         0.0166 
     16 S16       -76.1329   31.6252  -72.8433 S.3       11 UNK        -0.2615 
     17 C17       -75.2168   30.2171  -73.5611 C.3       11 UNK        -0.0865 
     18 CA        -73.6889   30.4745  -73.6615 C.3       10 UNK         0.0862 
     19 C         -72.9468   30.0996  -72.3524 C.2       10 UNK         0.5551 
     20 N         -72.4068   31.0764  -71.6367 N.am      10 UNK        -0.7319 
     21 O         -72.8948   28.9349  -71.9635 O.2       10 UNK        -0.5018 
     22 N         -73.1129   29.7662  -74.8101 N.am      10 UNK        -0.4509 
     23 C         -71.9737   30.1141  -75.4214 C.2       10 UNK         0.4899 
     24 O         -71.2881   31.0820  -75.0859 O.2       10 UNK        -0.4839 
     25 CA        -71.5576   29.2638  -76.6365 C.3       9 UNK         0.0222 
     26 CB        -70.1499   29.6073  -77.1708 C.3       9 UNK        -0.1966 
     27 N         -71.7038   27.8215  -76.4156 N.am      9 UNK        -0.4218 
     28 C         -71.0305   27.0501  -75.5472 C.2       9 UNK         0.5020 
     29 O         -70.1650   27.4797  -74.7829 O.2       9 UNK        -0.5274 
     30 CA        -71.3578   25.5405  -75.5131 C.3       8 UNK         0.0270 
     31 CB        -71.8660   25.1284  -74.1206 C.3       8 UNK        -0.1976 
     32 N         -72.3345   25.1118  -76.5197 N.am      8 UNK        -0.4313 
     33 C         -72.0968   24.9715  -77.8313 C.2       8 UNK         0.5041 
     34 O         -70.9845   25.0997  -78.3431 O.2       8 UNK        -0.5577 
     35 CA        -73.3205   24.7070  -78.7310 C.3       7 UNK         0.0284 
     36 CB        -73.6244   23.2033  -78.8238 C.3       7 UNK        -0.1958 
     37 N         -74.5178   25.4327  -78.2877 N.am      7 UNK        -0.4454 
     38 C         -74.6178   26.7701  -78.2417 C.2       7 UNK         0.5089 
     39 O         -73.7402   27.5358  -78.6373 O.2       7 UNK        -0.5125 
     40 CA        -75.8707   27.3538  -77.5734 C.3       6 UNK         0.0408 
     41 CB        -77.0388   27.4395  -78.5698 C.3       6 UNK        -0.1791 
     42 N         -76.2545   26.5798  -76.3897 N.am      6 UNK        -0.4762 
     43 C         -75.5889   26.6161  -75.2237 C.2       6 UNK         0.5007 
     44 O         -74.6188   27.3450  -75.0234 O.2       6 UNK        -0.5032 
     45 CA        -76.0828   25.6831  -74.0966 C.3       5 UNK         0.0783 
     46 C46       -77.2164   26.3793  -73.3154 C.3       11 UNK        -0.0857 
     47 S47       -77.8594   25.3988  -71.9138 S.3       11 UNK        -0.2512 
     48 C48       -77.2072   26.2915  -70.4606 C.3       11 UNK         0.0225 
     49 N         -76.5195   24.3838  -74.6056 N.am      5 UNK        -0.4615 
     50 C         -75.7601   23.4959  -75.2566 C.2       4 UNK         0.5053 
     51 O         -74.5522   23.6303  -75.4395 O.2       4 UNK        -0.5105 
     52 CA        -76.5054   22.2990  -75.8725 C.3       4 UNK         0.0263 
     53 CB        -76.5920   21.1404  -74.8678 C.3       4 UNK        -0.1981 
     54 N         -77.8553   22.6620  -76.3217 N.am      4 UNK        -0.4224 
     55 C         -78.1320   23.5779  -77.2583 C.2       3 UNK         0.4895 
     56 O         -77.2612   24.1454  -77.9180 O.2       3 UNK        -0.5091 
     57 CA        -79.6041   23.9901  -77.4480 C.3       3 UNK         0.0250 
     58 CB        -80.3577   22.9582  -78.3090 C.3       3 UNK        -0.1996 
     59 N         -80.3378   24.3008  -76.2049 N.am      3 UNK        -0.4254 
     60 C         -80.6775   23.4727  -75.2046 C.2       2 UNK         0.5004 
     61 O         -80.3297   22.2917  -75.1504 O.2       2 UNK        -0.5226 
     62 CA        -81.5410   24.0615  -74.0772 C.3       2 UNK         0.0269 
     63 CB        -81.5611   23.1737  -72.8161 C.3       2 UNK        -0.1926 
     64 N         -81.1229   25.4166  -73.7008 N.am      2 UNK        -0.4687 
     65 C         -81.9738   26.4094  -73.4020 C.2       1 UNK         0.5165 
     66 O         -83.1922   26.3344  -73.5751 O.2       1 UNK        -0.5079 
     67 H67       -78.2497   28.5433  -75.8476 H         1 UNK         0.0900 
     68 H68       -78.9612   30.1502  -75.6906 H         1 UNK         0.0900 
     69 H69       -78.1281   29.4224  -74.3205 H         1 UNK         0.0900 
     70 H70       -79.3711   28.3223  -72.8582 H         1 UNK         0.2959 
     71 H71       -81.0092   27.3080  -71.8006 H         1 UNK         0.1079 
     72 H72       -83.1898   28.3931  -71.8043 H         1 UNK         0.0837 
     73 H73       -82.8994   29.0899  -73.3753 H         1 UNK         0.0837 
     74 H74       -81.0439   30.4687  -69.3664 H         1 UNK         0.0685 
     75 H75       -81.5079   28.8307  -69.7455 H         1 UNK         0.0685 
     76 H76       -79.7085   27.2448  -69.9789 H         1 UNK         0.1434 
     77 H77       -75.7210   28.5422  -70.8446 H         1 UNK         0.1329 
     78 H78       -78.9073   31.4051  -70.6731 H         1 UNK         0.1335 
     79 H79       -75.2209   30.9450  -70.7039 H         1 UNK         0.0680 
     80 H80       -76.5048   32.1051  -70.5191 H         1 UNK         0.0680 
     81 H81       -75.6294   30.0769  -74.5616 H         1 UNK         0.1032 
     82 H82       -75.4370   29.2895  -73.0349 H         1 UNK         0.1032 
     83 H83       -73.5464   31.5414  -73.8487 H         1 UNK         0.0461 
     84 H84       -72.4477   32.0332  -71.9514 H         1 UNK         0.3453 
     85 H85       -71.9309   30.8506  -70.7776 H         1 UNK         0.3453 
     86 H86       -73.5771   28.8997  -75.0722 H         1 UNK         0.2984 
     87 H87       -72.2673   29.5145  -77.4258 H         1 UNK         0.0554 
     88 H88       -70.0916   30.6540  -77.4716 H         1 UNK         0.0847 
     89 H89       -69.9002   29.0062  -78.0451 H         1 UNK         0.0847 
     90 H90       -69.3775   29.4441  -76.4188 H         1 UNK         0.0847 
     91 H91       -72.4000   27.3753  -77.0011 H         1 UNK         0.3141 
     92 H92       -70.4237   25.0080  -75.7027 H         1 UNK         0.0743 
     93 H93       -71.1262   25.3520  -73.3509 H         1 UNK         0.0784 
     94 H94       -72.7802   25.6587  -73.8541 H         1 UNK         0.0784 
     95 H95       -72.0703   24.0587  -74.0709 H         1 UNK         0.0784 
     96 H96       -73.2622   24.8767  -76.1760 H         1 UNK         0.3213 
     97 H97       -73.0742   25.0646  -79.7331 H         1 UNK         0.0855 
     98 H98       -73.8445   22.7711  -77.8482 H         1 UNK         0.0814 
     99 H99       -72.7706   22.6609  -79.2320 H         1 UNK         0.0814 
    100 H100      -74.4751   23.0085  -79.4771 H         1 UNK         0.0814 
    101 H101      -75.3125   24.8811  -77.9808 H         1 UNK         0.3105 
    102 H102      -75.6358   28.3712  -77.2519 H         1 UNK         0.0547 
    103 H103      -76.7848   28.0987  -79.4008 H         1 UNK         0.0837 
    104 H104      -77.9382   27.8419  -78.1055 H         1 UNK         0.0837 
    105 H105      -77.2887   26.4699  -78.9990 H         1 UNK         0.0837 
    106 H106      -76.9905   25.8989  -76.5152 H         1 UNK         0.3020 
    107 H107      -75.2421   25.5129  -73.4205 H         1 UNK         0.1245 
    108 H108      -78.0552   26.5627  -73.9854 H         1 UNK         0.0781 
    109 H109      -76.8893   27.3584  -72.9702 H         1 UNK         0.0781 
    110 H110      -76.1177   26.2308  -70.4636 H         1 UNK         0.0836 
    111 H111      -77.5404   25.7872  -69.5525 H         1 UNK         0.0836 
    112 H112      -77.4928   24.1591  -74.4682 H         1 UNK         0.3022 
    113 H113      -75.9390   21.9637  -76.7433 H         1 UNK         0.0747 
    114 H114      -75.5987   20.8437  -74.5279 H         1 UNK         0.0793 
    115 H115      -77.1727   21.4123  -73.9852 H         1 UNK         0.0793 
    116 H116      -77.0563   20.2619  -75.3163 H         1 UNK         0.0793 
    117 H117      -78.6469   22.2646  -75.8173 H         1 UNK         0.3047 
    118 H118      -79.5864   24.9240  -78.0128 H         1 UNK         0.0822 
    119 H119      -81.3726   23.2906  -78.5273 H         1 UNK         0.0807 
    120 H120      -80.4220   21.9845  -77.8224 H         1 UNK         0.0807 
    121 H121      -79.8543   22.8081  -79.2652 H         1 UNK         0.0807 
    122 H122      -80.6621   25.2560  -76.1293 H         1 UNK         0.2946 
    123 H123      -82.5554   24.0852  -74.4824 H         1 UNK         0.1144 
    124 H124      -80.5675   23.0806  -72.3758 H         1 UNK         0.0793 
    125 H125      -81.9146   22.1675  -73.0456 H         1 UNK         0.0793 
    126 H126      -82.2278   23.5797  -72.0552 H         1 UNK         0.0793 
    127 H127      -80.1358   25.5567  -73.5357 H         1 UNK         0.2896 
@<TRIPOS>BOND
     1    1    2 1    
     2    1   67 1    
     3    1   68 1    
     4    1   69 1    
     5    2    3 2    
     6    2    4 am   BACKBONE|DICT|INTERRES
     7    4    5 1    
     8    4   70 1    
     9    5    6 1    
    10    5   65 1    
    11    5   71 1    
    12    6    7 1    
    13    6   72 1    
    14    6   73 1    
    15    7    8 1    
    16    8    9 1    
    17    8   74 1    
    18    8   75 1    
    19    9   10 ar   
    20    9   14 ar   
    21   10   11 ar   
    22   10   76 1    
    23   11   12 ar   
    24   11   48 1    
    25   12   13 ar   
    26   12   77 1    
    27   13   14 ar   
    28   13   15 1    
    29   14   78 1    
    30   15   16 1    
    31   15   79 1    
    32   15   80 1    
    33   16   17 1    
    34   17   18 1    
    35   17   81 1    
    36   17   82 1    
    37   18   19 1    
    38   18   22 1    
    39   18   83 1    
    40   19   20 am   BACKBONE|DICT|INTERRES
    41   19   21 2    
    42   20   84 1    
    43   20   85 1    
    44   22   23 am   BACKBONE|DICT|INTERRES
    45   22   86 1    
    46   23   24 2    
    47   23   25 1    
    48   25   26 1    
    49   25   27 1    
    50   25   87 1    
    51   26   88 1    
    52   26   89 1    
    53   26   90 1    
    54   27   28 am   BACKBONE|DICT|INTERRES
    55   27   91 1    
    56   28   29 2    
    57   28   30 1    
    58   30   31 1    
    59   30   32 1    
    60   30   92 1    
    61   31   93 1    
    62   31   94 1    
    63   31   95 1    
    64   32   33 am   BACKBONE|DICT|INTERRES
    65   32   96 1    
    66   33   34 2    
    67   33   35 1    
    68   35   36 1    
    69   35   37 1    
    70   35   97 1    
    71   36   98 1    
    72   36   99 1    
    73   36  100 1    
    74   37   38 am   BACKBONE|DICT|INTERRES
    75   37  101 1    
    76   38   39 2    
    77   38   40 1    
    78   40   41 1    
    79   40   42 1    
    80   40  102 1    
    81   41  103 1    
    82   41  104 1    
    83   41  105 1    
    84   42   43 am   BACKBONE|DICT|INTERRES
    85   42  106 1    
    86   43   44 2    
    87   43   45 1    
    88   45   46 1    
    89   45   49 1    
    90   45  107 1    
    91   46   47 1    
    92   46  108 1    
    93   46  109 1    
    94   47   48 1    
    95   48  110 1    
    96   48  111 1    
    97   49   50 am   BACKBONE|DICT|INTERRES
    98   49  112 1    
    99   50   51 2    
   100   50   52 1    
   101   52   53 1    
   102   52   54 1    
   103   52  113 1    
   104   53  114 1    
   105   53  115 1    
   106   53  116 1    
   107   54   55 am   BACKBONE|DICT|INTERRES
   108   54  117 1    
   109   55   56 2    
   110   55   57 1    
   111   57   58 1    
   112   57   59 1    
   113   57  118 1    
   114   58  119 1    
   115   58  120 1    
   116   58  121 1    
   117   59   60 am   BACKBONE|DICT|INTERRES
   118   59  122 1    
   119   60   61 2    
   120   60   62 1    
   121   62   63 1    
   122   62   64 1    
   123   62  123 1    
   124   63  124 1    
   125   63  125 1    
   126   63  126 1    
   127   64   65 am   BACKBONE|DICT|INTERRES
   128   64  127 1    
   129   65   66 2    
@<TRIPOS>SUBSTRUCTURE
     1 UNK         1 GROUP             0       ****    0 ROOT    
