@<TRIPOS>MOLECULE
3R135
127   129    1
SMALL
USER_CHARGES


@<TRIPOS>ATOM
      1 CA        -80.6253   25.3564  -71.9238 C.3       0 UNK        -0.1998 
      2 C         -80.8558   25.6905  -73.3889 C.2       0 UNK         0.4909 
      3 O         -81.4362   24.8820  -74.1148 O.2       0 UNK        -0.5240 
      4 N         -80.4117   26.8789  -73.8237 N.am      1 UNK        -0.4739 
      5 CA        -80.5549   27.3886  -75.1909 C.3       1 UNK         0.0864 
      6 C6        -80.1016   28.8687  -75.3182 C.3       11 UNK        -0.0881 
      7 S7        -78.3260   29.1697  -74.9906 S.3       11 UNK        -0.2682 
      8 C8        -78.3265   30.0294  -73.3849 C.3       11 UNK         0.0289 
      9 C9        -77.3496   29.3585  -72.4340 C.ar      11 UNK        -0.0687 
     10 C10       -77.7660   28.2705  -71.6663 C.ar      11 UNK        -0.0823 
     11 C11       -76.8615   27.5865  -70.8523 C.ar      11 UNK        -0.0830 
     12 C12       -75.5404   28.0340  -70.7600 C.ar      11 UNK        -0.1021 
     13 C13       -75.1155   29.1367  -71.5083 C.ar      11 UNK        -0.0753 
     14 C14       -76.0230   29.7909  -72.3486 C.ar      11 UNK        -0.0933 
     15 C15       -73.6682   29.5970  -71.4439 C.3       11 UNK         0.0166 
     16 S16       -73.5013   31.1282  -70.4771 S.3       11 UNK        -0.2615 
     17 C17       -71.6910   31.3657  -70.4999 C.3       11 UNK        -0.0865 
     18 CA        -71.2369   32.5463  -71.4103 C.3       10 UNK         0.0862 
     19 C         -69.7335   32.9138  -71.2056 C.2       10 UNK         0.5551 
     20 N         -69.0214   33.3760  -72.2263 N.am      10 UNK        -0.7319 
     21 O         -69.2092   32.8118  -70.0988 O.2       10 UNK        -0.5018 
     22 N         -71.6456   32.3923  -72.8215 N.am      10 UNK        -0.4509 
     23 C         -71.2543   31.4179  -73.6521 C.2       10 UNK         0.4899 
     24 O         -70.4954   30.4985  -73.3370 O.2       10 UNK        -0.4839 
     25 CA        -71.7734   31.5058  -75.0941 C.3       9 UNK         0.0222 
     26 CB        -70.7562   32.2366  -75.9861 C.3       9 UNK        -0.1966 
     27 N         -71.9911   30.1581  -75.6188 N.am      9 UNK        -0.4218 
     28 C         -73.1498   29.4944  -75.5400 C.2       9 UNK         0.5020 
     29 O         -74.1969   29.9870  -75.1151 O.2       9 UNK        -0.5274 
     30 CA        -73.1082   28.0142  -75.9627 C.3       8 UNK         0.0270 
     31 CB        -72.7131   27.1395  -74.7610 C.3       8 UNK        -0.1976 
     32 N         -74.3852   27.5383  -76.5036 N.am      8 UNK        -0.4313 
     33 C         -74.9668   28.0069  -77.6179 C.2       8 UNK         0.5041 
     34 O         -74.4382   28.8408  -78.3578 O.2       8 UNK        -0.5577 
     35 CA        -76.3651   27.4537  -77.9687 C.3       7 UNK         0.0284 
     36 CB        -76.7629   27.7136  -79.4390 C.3       7 UNK        -0.1958 
     37 N         -76.5468   26.0418  -77.6094 N.am      7 UNK        -0.4454 
     38 C         -75.8563   24.9888  -78.0704 C.2       7 UNK         0.5089 
     39 O         -74.9846   25.0715  -78.9375 O.2       7 UNK        -0.5125 
     40 CA        -76.1913   23.6091  -77.4571 C.3       6 UNK         0.0408 
     41 CB        -75.0180   22.6165  -77.5894 C.3       6 UNK        -0.1791 
     42 N         -76.6594   23.6274  -76.0622 N.am      6 UNK        -0.4762 
     43 C         -76.0637   24.2137  -75.0085 C.2       6 UNK         0.5007 
     44 O         -75.0709   24.9342  -75.1117 O.2       6 UNK        -0.5032 
     45 CA        -76.6327   23.9320  -73.6019 C.3       5 UNK         0.0783 
     46 C46       -76.7567   25.2100  -72.7348 C.3       11 UNK        -0.0857 
     47 S47       -76.7528   24.7978  -70.9511 S.3       11 UNK        -0.2512 
     48 C48       -77.3098   26.3294  -70.1239 C.3       11 UNK         0.0225 
     49 N         -77.9004   23.1948  -73.6643 N.am      5 UNK        -0.4615 
     50 C         -78.0598   21.9321  -73.2510 C.2       4 UNK         0.5053 
     51 O         -77.1566   21.2492  -72.7668 O.2       4 UNK        -0.5105 
     52 CA        -79.4575   21.3055  -73.3992 C.3       4 UNK         0.0263 
     53 CB        -80.2226   21.3749  -72.0676 C.3       4 UNK        -0.1981 
     54 N         -80.2952   21.8677  -74.4642 N.am      4 UNK        -0.4224 
     55 C         -80.0153   21.8351  -75.7744 C.2       3 UNK         0.4895 
     56 O         -78.9270   21.4827  -76.2299 O.2       3 UNK        -0.5091 
     57 CA        -81.1397   22.2461  -76.7402 C.3       3 UNK         0.0250 
     58 CB        -82.5564   22.1119  -76.1441 C.3       3 UNK        -0.1996 
     59 N         -80.9363   23.6197  -77.1857 N.am      3 UNK        -0.4254 
     60 C         -80.1941   23.9872  -78.2389 C.2       2 UNK         0.5004 
     61 O         -79.6420   23.1923  -78.9999 O.2       2 UNK        -0.5226 
     62 CA        -80.0490   25.4964  -78.5142 C.3       2 UNK         0.0269 
     63 CB        -80.8066   25.8913  -79.7926 C.3       2 UNK        -0.1926 
     64 N         -80.4916   26.3614  -77.4147 N.am      2 UNK        -0.4687 
     65 C         -79.8749   26.4721  -76.2309 C.2       1 UNK         0.5165 
     66 O         -78.8323   25.8766  -75.9474 O.2       1 UNK        -0.5079 
     67 H67       -81.4664   24.7852  -71.5318 H         1 UNK         0.0900 
     68 H68       -79.7234   24.7574  -71.8084 H         1 UNK         0.0900 
     69 H69       -80.5266   26.2559  -71.3179 H         1 UNK         0.0900 
     70 H70       -79.9068   27.4855  -73.1983 H         1 UNK         0.2959 
     71 H71       -81.6265   27.3628  -75.4019 H         1 UNK         0.1079 
     72 H72       -80.7084   29.4950  -74.6631 H         1 UNK         0.0837 
     73 H73       -80.3133   29.2329  -76.3253 H         1 UNK         0.0837 
     74 H74       -79.3235   30.0371  -72.9431 H         1 UNK         0.0685 
     75 H75       -78.0511   31.0738  -73.5392 H         1 UNK         0.0685 
     76 H76       -78.7871   27.9295  -71.7328 H         1 UNK         0.1434 
     77 H77       -74.8385   27.5034  -70.1312 H         1 UNK         0.1329 
     78 H78       -75.6886   30.6251  -72.9503 H         1 UNK         0.1335 
     79 H79       -73.0397   28.8204  -71.0052 H         1 UNK         0.0680 
     80 H80       -73.2974   29.7596  -72.4553 H         1 UNK         0.0680 
     81 H81       -71.3919   31.5495  -69.4664 H         1 UNK         0.1032 
     82 H82       -71.1905   30.4397  -70.7865 H         1 UNK         0.1032 
     83 H83       -71.7705   33.4314  -71.0620 H         1 UNK         0.0461 
     84 H84       -68.0544   33.6218  -72.0833 H         1 UNK         0.3453 
     85 H85       -69.4404   33.4780  -73.1361 H         1 UNK         0.3453 
     86 H86       -72.2582   33.1138  -73.1740 H         1 UNK         0.2984 
     87 H87       -72.7104   32.0671  -75.1072 H         1 UNK         0.0554 
     88 H88       -70.5969   33.2592  -75.6417 H         1 UNK         0.0847 
     89 H89       -71.1047   32.2956  -77.0175 H         1 UNK         0.0847 
     90 H90       -69.7856   31.7385  -75.9886 H         1 UNK         0.0847 
     91 H91       -71.1643   29.6581  -75.9138 H         1 UNK         0.3141 
     92 H92       -72.3553   27.8970  -76.7448 H         1 UNK         0.0743 
     93 H93       -71.7692   27.4691  -74.3242 H         1 UNK         0.0784 
     94 H94       -72.5863   26.0971  -75.0538 H         1 UNK         0.0784 
     95 H95       -73.4674   27.1773  -73.9731 H         1 UNK         0.0784 
     96 H96       -74.8559   26.8112  -75.9748 H         1 UNK         0.3213 
     97 H97       -77.0642   28.0103  -77.3453 H         1 UNK         0.0855 
     98 H98       -76.0926   27.2101  -80.1359 H         1 UNK         0.0814 
     99 H99       -76.7270   28.7789  -79.6699 H         1 UNK         0.0814 
    100 H100      -77.7783   27.3812  -79.6480 H         1 UNK         0.0814 
    101 H101      -77.2464   25.8647  -76.8888 H         1 UNK         0.3105 
    102 H102      -77.0214   23.2154  -78.0445 H         1 UNK         0.0547 
    103 H103      -75.2811   21.6362  -77.1920 H         1 UNK         0.0837 
    104 H104      -74.1334   22.9689  -77.0577 H         1 UNK         0.0837 
    105 H105      -74.7365   22.4731  -78.6334 H         1 UNK         0.0837 
    106 H106      -77.4706   23.0464  -75.8819 H         1 UNK         0.3020 
    107 H107      -75.8627   23.3075  -73.1431 H         1 UNK         0.1245 
    108 H108      -77.6578   25.7652  -72.9976 H         1 UNK         0.0781 
    109 H109      -75.9191   25.8900  -72.9030 H         1 UNK         0.0781 
    110 H110      -76.9246   26.3400  -69.1033 H         1 UNK         0.0836 
    111 H111      -78.3960   26.3062  -70.0324 H         1 UNK         0.0836 
    112 H112      -78.6861   23.6811  -74.0734 H         1 UNK         0.3022 
    113 H113      -79.3022   20.2518  -73.6407 H         1 UNK         0.0747 
    114 H114      -81.1563   20.8143  -72.1162 H         1 UNK         0.0793 
    115 H115      -79.6337   20.9476  -71.2545 H         1 UNK         0.0793 
    116 H116      -80.4614   22.4013  -71.7911 H         1 UNK         0.0793 
    117 H117      -81.1919   22.2400  -74.1835 H         1 UNK         0.3047 
    118 H118      -81.0822   21.5718  -77.5976 H         1 UNK         0.0822 
    119 H119      -83.3150   22.2865  -76.9075 H         1 UNK         0.0807 
    120 H120      -82.7396   22.8219  -75.3369 H         1 UNK         0.0807 
    121 H121      -82.7263   21.1080  -75.7522 H         1 UNK         0.0807 
    122 H122      -81.3109   24.3436  -76.5877 H         1 UNK         0.2946 
    123 H123      -78.9878   25.6736  -78.6829 H         1 UNK         0.1144 
    124 H124      -80.6352   26.9370  -80.0490 H         1 UNK         0.0793 
    125 H125      -81.8817   25.7409  -79.6876 H         1 UNK         0.0793 
    126 H126      -80.4760   25.2946  -80.6442 H         1 UNK         0.0793 
    127 H127      -81.3430   26.8818  -77.5738 H         1 UNK         0.2896 
@<TRIPOS>BOND
     1    1    2 1    
     2    1   67 1    
     3    1   68 1    
     4    1   69 1    
     5    2    3 2    
     6    2    4 am   BACKBONE|DICT|INTERRES
     7    4    5 1    
     8    4   70 1    
     9    5    6 1    
    10    5   65 1    
    11    5   71 1    
    12    6    7 1    
    13    6   72 1    
    14    6   73 1    
    15    7    8 1    
    16    8    9 1    
    17    8   74 1    
    18    8   75 1    
    19    9   10 ar   
    20    9   14 ar   
    21   10   11 ar   
    22   10   76 1    
    23   11   12 ar   
    24   11   48 1    
    25   12   13 ar   
    26   12   77 1    
    27   13   14 ar   
    28   13   15 1    
    29   14   78 1    
    30   15   16 1    
    31   15   79 1    
    32   15   80 1    
    33   16   17 1    
    34   17   18 1    
    35   17   81 1    
    36   17   82 1    
    37   18   19 1    
    38   18   22 1    
    39   18   83 1    
    40   19   20 am   BACKBONE|DICT|INTERRES
    41   19   21 2    
    42   20   84 1    
    43   20   85 1    
    44   22   23 am   BACKBONE|DICT|INTERRES
    45   22   86 1    
    46   23   24 2    
    47   23   25 1    
    48   25   26 1    
    49   25   27 1    
    50   25   87 1    
    51   26   88 1    
    52   26   89 1    
    53   26   90 1    
    54   27   28 am   BACKBONE|DICT|INTERRES
    55   27   91 1    
    56   28   29 2    
    57   28   30 1    
    58   30   31 1    
    59   30   32 1    
    60   30   92 1    
    61   31   93 1    
    62   31   94 1    
    63   31   95 1    
    64   32   33 am   BACKBONE|DICT|INTERRES
    65   32   96 1    
    66   33   34 2    
    67   33   35 1    
    68   35   36 1    
    69   35   37 1    
    70   35   97 1    
    71   36   98 1    
    72   36   99 1    
    73   36  100 1    
    74   37   38 am   BACKBONE|DICT|INTERRES
    75   37  101 1    
    76   38   39 2    
    77   38   40 1    
    78   40   41 1    
    79   40   42 1    
    80   40  102 1    
    81   41  103 1    
    82   41  104 1    
    83   41  105 1    
    84   42   43 am   BACKBONE|DICT|INTERRES
    85   42  106 1    
    86   43   44 2    
    87   43   45 1    
    88   45   46 1    
    89   45   49 1    
    90   45  107 1    
    91   46   47 1    
    92   46  108 1    
    93   46  109 1    
    94   47   48 1    
    95   48  110 1    
    96   48  111 1    
    97   49   50 am   BACKBONE|DICT|INTERRES
    98   49  112 1    
    99   50   51 2    
   100   50   52 1    
   101   52   53 1    
   102   52   54 1    
   103   52  113 1    
   104   53  114 1    
   105   53  115 1    
   106   53  116 1    
   107   54   55 am   BACKBONE|DICT|INTERRES
   108   54  117 1    
   109   55   56 2    
   110   55   57 1    
   111   57   58 1    
   112   57   59 1    
   113   57  118 1    
   114   58  119 1    
   115   58  120 1    
   116   58  121 1    
   117   59   60 am   BACKBONE|DICT|INTERRES
   118   59  122 1    
   119   60   61 2    
   120   60   62 1    
   121   62   63 1    
   122   62   64 1    
   123   62  123 1    
   124   63  124 1    
   125   63  125 1    
   126   63  126 1    
   127   64   65 am   BACKBONE|DICT|INTERRES
   128   64  127 1    
   129   65   66 2    
@<TRIPOS>SUBSTRUCTURE
     1 UNK         1 GROUP             0       ****    0 ROOT    
