@<TRIPOS>MOLECULE
3R135
127   129    1
SMALL
USER_CHARGES


@<TRIPOS>ATOM
      1 CA        -81.7217   22.5794  -73.0033 C.3       0 UNK        -0.1998 
      2 C         -81.7345   23.8552  -73.8306 C.2       0 UNK         0.4909 
      3 O         -82.2316   23.8469  -74.9568 O.2       0 UNK        -0.5240 
      4 N         -81.1874   24.9520  -73.2877 N.am      1 UNK        -0.4739 
      5 CA        -81.0924   26.2623  -73.9413 C.3       1 UNK         0.0864 
      6 C6        -80.5327   27.3289  -72.9752 C.3       11 UNK        -0.0881 
      7 S7        -80.8796   29.0385  -73.5144 S.3       11 UNK        -0.2682 
      8 C8        -80.6245   29.9749  -71.9702 C.3       11 UNK         0.0289 
      9 C9        -79.1885   29.8828  -71.4707 C.ar      11 UNK        -0.0687 
     10 C10       -78.8012   28.8058  -70.6710 C.ar      11 UNK        -0.0823 
     11 C11       -77.4806   28.6744  -70.2418 C.ar      11 UNK        -0.0830 
     12 C12       -76.5558   29.6739  -70.5480 C.ar      11 UNK        -0.1021 
     13 C13       -76.9317   30.7722  -71.3286 C.ar      11 UNK        -0.0753 
     14 C14       -78.2471   30.8638  -71.8005 C.ar      11 UNK        -0.0933 
     15 C15       -75.9218   31.8659  -71.6483 C.3       11 UNK         0.0166 
     16 S16       -74.7903   31.3830  -72.9900 S.3       11 UNK        -0.2615 
     17 C17       -73.6380   30.2640  -72.1162 C.3       11 UNK        -0.0865 
     18 CA        -72.2372   30.1949  -72.7767 C.3       10 UNK         0.0862 
     19 C         -71.2540   29.3114  -71.9522 C.2       10 UNK         0.5551 
     20 N         -70.5530   28.3491  -72.5424 N.am      10 UNK        -0.7319 
     21 O         -71.1140   29.5120  -70.7482 O.2       10 UNK        -0.5018 
     22 N         -72.3276   29.8051  -74.1902 N.am      10 UNK        -0.4509 
     23 C         -71.5204   30.2572  -75.1560 C.2       10 UNK         0.4899 
     24 O         -70.6343   31.0939  -74.9725 O.2       10 UNK        -0.4839 
     25 CA        -71.7435   29.6717  -76.5625 C.3       9 UNK         0.0222 
     26 CB        -70.5567   29.9281  -77.5157 C.3       9 UNK        -0.1966 
     27 N         -72.0970   28.2479  -76.5519 N.am      9 UNK        -0.4218 
     28 C         -71.3762   27.2243  -76.0640 C.2       9 UNK         0.5020 
     29 O         -70.3014   27.3715  -75.4797 O.2       9 UNK        -0.5274 
     30 CA        -71.9421   25.7952  -76.2286 C.3       8 UNK         0.0270 
     31 CB        -71.8880   25.0216  -74.8995 C.3       8 UNK        -0.1976 
     32 N         -73.3132   25.7645  -76.7472 N.am      8 UNK        -0.4313 
     33 C         -73.6633   25.9661  -78.0249 C.2       8 UNK         0.5041 
     34 O         -72.8555   26.0817  -78.9463 O.2       8 UNK        -0.5577 
     35 CA        -75.1632   26.1442  -78.3083 C.3       7 UNK         0.0284 
     36 CB        -75.7970   24.8112  -78.7305 C.3       7 UNK        -0.1958 
     37 N         -75.8793   26.7219  -77.1615 N.am      7 UNK        -0.4454 
     38 C         -75.7673   28.0068  -76.7861 C.2       7 UNK         0.5089 
     39 O         -75.1281   28.8424  -77.4250 O.2       7 UNK        -0.5125 
     40 CA        -76.4116   28.4256  -75.4523 C.3       6 UNK         0.0408 
     41 CB        -77.8207   28.9894  -75.6656 C.3       6 UNK        -0.1791 
     42 N         -76.4259   27.3393  -74.4645 N.am      6 UNK        -0.4762 
     43 C         -75.3199   26.9669  -73.8018 C.2       6 UNK         0.5007 
     44 O         -74.2325   27.5266  -73.9535 O.2       6 UNK        -0.5032 
     45 CA        -75.3784   25.7337  -72.8753 C.3       5 UNK         0.0783 
     46 C46       -75.4122   26.0965  -71.3605 C.3       11 UNK        -0.0857 
     47 S47       -77.0498   25.9721  -70.5526 S.3       11 UNK        -0.2512 
     48 C48       -77.0662   27.4358  -69.4675 C.3       11 UNK         0.0225 
     49 N         -76.3586   24.7085  -73.2480 N.am      5 UNK        -0.4615 
     50 C         -76.4048   24.0429  -74.4076 C.2       4 UNK         0.5053 
     51 O         -75.6992   24.3254  -75.3758 O.2       4 UNK        -0.5105 
     52 CA        -77.3573   22.8397  -74.4925 C.3       4 UNK         0.0263 
     53 CB        -78.0917   22.5118  -73.1742 C.3       4 UNK        -0.1981 
     54 N         -78.3322   23.0362  -75.5644 N.am      4 UNK        -0.4224 
     55 C         -78.7892   22.0598  -76.3644 C.2       3 UNK         0.4895 
     56 O         -78.3815   20.8984  -76.3082 O.2       3 UNK        -0.5091 
     57 CA        -79.8978   22.3946  -77.3837 C.3       3 UNK         0.0250 
     58 CB        -81.1112   21.4653  -77.1996 C.3       3 UNK        -0.1996 
     59 N         -80.3500   23.7834  -77.2846 N.am      3 UNK        -0.4254 
     60 C         -79.9521   24.7748  -78.0934 C.2       2 UNK         0.5004 
     61 O         -79.2769   24.5931  -79.1049 O.2       2 UNK        -0.5226 
     62 CA        -80.3587   26.2166  -77.7278 C.3       2 UNK         0.0269 
     63 CB        -81.3639   26.7725  -78.7498 C.3       2 UNK        -0.1926 
     64 N         -80.9199   26.3692  -76.3816 N.am      2 UNK        -0.4687 
     65 C         -80.2590   26.1662  -75.2343 C.2       1 UNK         0.5165 
     66 O         -79.0654   25.8563  -75.1735 O.2       1 UNK        -0.5079 
     67 H67       -82.7421   22.2549  -72.8018 H         1 UNK         0.0900 
     68 H68       -81.2141   21.7846  -73.5490 H         1 UNK         0.0900 
     69 H69       -81.2137   22.7154  -72.0488 H         1 UNK         0.0900 
     70 H70       -80.7833   24.8947  -72.3642 H         1 UNK         0.2959 
     71 H71       -82.1131   26.5499  -74.2036 H         1 UNK         0.1079 
     72 H72       -80.9942   27.1996  -71.9953 H         1 UNK         0.0837 
     73 H73       -79.4576   27.2013  -72.8306 H         1 UNK         0.0837 
     74 H74       -80.8915   31.0182  -72.1449 H         1 UNK         0.0685 
     75 H75       -81.3129   29.6100  -71.2062 H         1 UNK         0.0685 
     76 H76       -79.5192   28.0417  -70.4090 H         1 UNK         0.1434 
     77 H77       -75.5418   29.5905  -70.1852 H         1 UNK         0.1329 
     78 H78       -78.5411   31.7024  -72.4168 H         1 UNK         0.1335 
     79 H79       -75.3536   32.1263  -70.7542 H         1 UNK         0.0680 
     80 H80       -76.4413   32.7771  -71.9488 H         1 UNK         0.0680 
     81 H81       -73.5396   30.6064  -71.0846 H         1 UNK         0.1032 
     82 H82       -74.0856   29.2720  -72.0670 H         1 UNK         0.1032 
     83 H83       -71.8231   31.2036  -72.7271 H         1 UNK         0.0461 
     84 H84       -69.9187   27.7953  -71.9899 H         1 UNK         0.3453 
     85 H85       -70.6263   28.1848  -73.5389 H         1 UNK         0.3453 
     86 H86       -73.0083   29.0811  -74.3970 H         1 UNK         0.2984 
     87 H87       -72.6106   30.1933  -76.9700 H         1 UNK         0.0554 
     88 H88       -70.3716   30.9965  -77.6334 H         1 UNK         0.0847 
     89 H89       -70.7510   29.5239  -78.5091 H         1 UNK         0.0847 
     90 H90       -69.6355   29.4777  -77.1444 H         1 UNK         0.0847 
     91 H91       -72.9891   28.0308  -76.9762 H         1 UNK         0.3141 
     92 H92       -71.2984   25.2780  -76.9431 H         1 UNK         0.0743 
     93 H93       -70.8551   24.8495  -74.5940 H         1 UNK         0.0784 
     94 H94       -72.3696   25.5737  -74.0937 H         1 UNK         0.0784 
     95 H95       -72.3677   24.0458  -74.9802 H         1 UNK         0.0784 
     96 H96       -74.0560   25.6238  -76.0726 H         1 UNK         0.3213 
     97 H97       -75.2532   26.8347  -79.1501 H         1 UNK         0.0855 
     98 H98       -75.8235   24.0844  -77.9196 H         1 UNK         0.0814 
     99 H99       -75.2414   24.3587  -79.5530 H         1 UNK         0.0814 
    100 H100      -76.8133   24.9636  -79.0834 H         1 UNK         0.0814 
    101 H101      -76.3569   26.0735  -76.5470 H         1 UNK         0.3105 
    102 H102      -75.8086   29.2417  -75.0473 H         1 UNK         0.0547 
    103 H103      -78.2525   29.3217  -74.7225 H         1 UNK         0.0837 
    104 H104      -77.7942   29.8543  -76.3294 H         1 UNK         0.0837 
    105 H105      -78.4910   28.2608  -76.1147 H         1 UNK         0.0837 
    106 H106      -77.2846   26.8110  -74.3558 H         1 UNK         0.3020 
    107 H107      -74.4131   25.2505  -73.0367 H         1 UNK         0.1245 
    108 H108      -74.9848   27.0844  -71.1790 H         1 UNK         0.0781 
    109 H109      -74.7585   25.4085  -70.8221 H         1 UNK         0.0781 
    110 H110      -76.0899   27.5651  -68.9977 H         1 UNK         0.0836 
    111 H111      -77.7756   27.2664  -68.6561 H         1 UNK         0.0836 
    112 H112      -76.9939   24.4411  -72.5098 H         1 UNK         0.3022 
    113 H113      -76.7173   21.9895  -74.7375 H         1 UNK         0.0747 
    114 H114      -78.7005   21.6139  -73.2805 H         1 UNK         0.0793 
    115 H115      -77.3877   22.3174  -72.3638 H         1 UNK         0.0793 
    116 H116      -78.7490   23.3233  -72.8622 H         1 UNK         0.0793 
    117 H117      -78.6664   23.9884  -75.6806 H         1 UNK         0.3047 
    118 H118      -79.4816   22.2048  -78.3752 H         1 UNK         0.0822 
    119 H119      -80.8330   20.4214  -77.3504 H         1 UNK         0.0807 
    120 H120      -81.8986   21.6948  -77.9176 H         1 UNK         0.0807 
    121 H121      -81.5363   21.5465  -76.1991 H         1 UNK         0.0807 
    122 H122      -80.9577   24.0011  -76.4997 H         1 UNK         0.2946 
    123 H123      -79.4480   26.8166  -77.7824 H         1 UNK         0.1144 
    124 H124      -81.5901   27.8211  -78.5551 H         1 UNK         0.0793 
    125 H125      -82.3021   26.2164  -78.7358 H         1 UNK         0.0793 
    126 H126      -80.9655   26.7135  -79.7638 H         1 UNK         0.0793 
    127 H127      -81.9056   26.5853  -76.3359 H         1 UNK         0.2896 
@<TRIPOS>BOND
     1    1    2 1    
     2    1   67 1    
     3    1   68 1    
     4    1   69 1    
     5    2    3 2    
     6    2    4 am   BACKBONE|DICT|INTERRES
     7    4    5 1    
     8    4   70 1    
     9    5    6 1    
    10    5   65 1    
    11    5   71 1    
    12    6    7 1    
    13    6   72 1    
    14    6   73 1    
    15    7    8 1    
    16    8    9 1    
    17    8   74 1    
    18    8   75 1    
    19    9   10 ar   
    20    9   14 ar   
    21   10   11 ar   
    22   10   76 1    
    23   11   12 ar   
    24   11   48 1    
    25   12   13 ar   
    26   12   77 1    
    27   13   14 ar   
    28   13   15 1    
    29   14   78 1    
    30   15   16 1    
    31   15   79 1    
    32   15   80 1    
    33   16   17 1    
    34   17   18 1    
    35   17   81 1    
    36   17   82 1    
    37   18   19 1    
    38   18   22 1    
    39   18   83 1    
    40   19   20 am   BACKBONE|DICT|INTERRES
    41   19   21 2    
    42   20   84 1    
    43   20   85 1    
    44   22   23 am   BACKBONE|DICT|INTERRES
    45   22   86 1    
    46   23   24 2    
    47   23   25 1    
    48   25   26 1    
    49   25   27 1    
    50   25   87 1    
    51   26   88 1    
    52   26   89 1    
    53   26   90 1    
    54   27   28 am   BACKBONE|DICT|INTERRES
    55   27   91 1    
    56   28   29 2    
    57   28   30 1    
    58   30   31 1    
    59   30   32 1    
    60   30   92 1    
    61   31   93 1    
    62   31   94 1    
    63   31   95 1    
    64   32   33 am   BACKBONE|DICT|INTERRES
    65   32   96 1    
    66   33   34 2    
    67   33   35 1    
    68   35   36 1    
    69   35   37 1    
    70   35   97 1    
    71   36   98 1    
    72   36   99 1    
    73   36  100 1    
    74   37   38 am   BACKBONE|DICT|INTERRES
    75   37  101 1    
    76   38   39 2    
    77   38   40 1    
    78   40   41 1    
    79   40   42 1    
    80   40  102 1    
    81   41  103 1    
    82   41  104 1    
    83   41  105 1    
    84   42   43 am   BACKBONE|DICT|INTERRES
    85   42  106 1    
    86   43   44 2    
    87   43   45 1    
    88   45   46 1    
    89   45   49 1    
    90   45  107 1    
    91   46   47 1    
    92   46  108 1    
    93   46  109 1    
    94   47   48 1    
    95   48  110 1    
    96   48  111 1    
    97   49   50 am   BACKBONE|DICT|INTERRES
    98   49  112 1    
    99   50   51 2    
   100   50   52 1    
   101   52   53 1    
   102   52   54 1    
   103   52  113 1    
   104   53  114 1    
   105   53  115 1    
   106   53  116 1    
   107   54   55 am   BACKBONE|DICT|INTERRES
   108   54  117 1    
   109   55   56 2    
   110   55   57 1    
   111   57   58 1    
   112   57   59 1    
   113   57  118 1    
   114   58  119 1    
   115   58  120 1    
   116   58  121 1    
   117   59   60 am   BACKBONE|DICT|INTERRES
   118   59  122 1    
   119   60   61 2    
   120   60   62 1    
   121   62   63 1    
   122   62   64 1    
   123   62  123 1    
   124   63  124 1    
   125   63  125 1    
   126   63  126 1    
   127   64   65 am   BACKBONE|DICT|INTERRES
   128   64  127 1    
   129   65   66 2    
@<TRIPOS>SUBSTRUCTURE
     1 UNK         1 GROUP             0       ****    0 ROOT    
