@<TRIPOS>MOLECULE
3R135
127   129    1
SMALL
USER_CHARGES


@<TRIPOS>ATOM
      1 CA        -77.6956   26.3102  -71.3780 C.3       0 UNK        -0.1998 
      2 C         -79.1404   25.8540  -71.4401 C.2       0 UNK         0.4909 
      3 O         -79.4199   24.6566  -71.3744 O.2       0 UNK        -0.5240 
      4 N         -80.0658   26.8111  -71.5571 N.am      1 UNK        -0.4739 
      5 CA        -81.5162   26.5999  -71.5221 C.3       1 UNK         0.0864 
      6 C6        -82.2656   27.8109  -70.8958 C.3       11 UNK        -0.0881 
      7 S7        -81.5338   28.3843  -69.3168 S.3       11 UNK        -0.2682 
      8 C8        -80.9088   30.0486  -69.7393 C.3       11 UNK         0.0289 
      9 C9        -79.7269   30.0137  -70.7025 C.ar      11 UNK        -0.0687 
     10 C10       -79.9511   30.0687  -72.0812 C.ar      11 UNK        -0.0823 
     11 C11       -78.8831   30.0112  -72.9768 C.ar      11 UNK        -0.0830 
     12 C12       -77.5759   29.9585  -72.4893 C.ar      11 UNK        -0.1021 
     13 C13       -77.3296   29.9290  -71.1135 C.ar      11 UNK        -0.0753 
     14 C14       -78.4116   29.9455  -70.2231 C.ar      11 UNK        -0.0933 
     15 C15       -75.8915   29.8976  -70.6064 C.3       11 UNK         0.0166 
     16 S16       -74.9892   28.4426  -71.2310 S.3       11 UNK        -0.2615 
     17 C17       -73.2549   28.8957  -70.8882 C.3       11 UNK        -0.0865 
     18 CA        -72.5993   29.7645  -71.9990 C.3       10 UNK         0.0862 
     19 C         -71.0907   30.0028  -71.6912 C.2       10 UNK         0.5551 
     20 N         -70.1577   29.5450  -72.5191 N.am      10 UNK        -0.7319 
     21 O         -70.7635   30.6171  -70.6787 O.2       10 UNK        -0.5018 
     22 N         -72.8737   29.2461  -73.3489 N.am      10 UNK        -0.4509 
     23 C         -72.7398   29.9432  -74.4846 C.2       10 UNK         0.4899 
     24 O         -72.4150   31.1313  -74.5234 O.2       10 UNK        -0.4839 
     25 CA        -73.0267   29.1805  -75.7935 C.3       9 UNK         0.0222 
     26 CB        -72.3500   29.8189  -77.0242 C.3       9 UNK        -0.1966 
     27 N         -72.7206   27.7462  -75.7212 N.am      9 UNK        -0.4218 
     28 C         -71.5350   27.1752  -75.4585 C.2       9 UNK         0.5020 
     29 O         -70.5080   27.8069  -75.2049 O.2       9 UNK        -0.5274 
     30 CA        -71.4884   25.6405  -75.4527 C.3       8 UNK         0.0270 
     31 CB        -71.8575   25.1037  -74.0588 C.3       8 UNK        -0.1976 
     32 N         -72.3932   25.0607  -76.4526 N.am      8 UNK        -0.4313 
     33 C         -72.0050   24.3180  -77.4970 C.2       8 UNK         0.5041 
     34 O         -70.8300   24.0360  -77.7384 O.2       8 UNK        -0.5577 
     35 CA        -73.1005   23.7755  -78.4332 C.3       7 UNK         0.0284 
     36 CB        -73.6152   22.4133  -77.9409 C.3       7 UNK        -0.1958 
     37 N         -74.2312   24.6857  -78.6446 N.am      7 UNK        -0.4454 
     38 C         -74.1581   25.8005  -79.3887 C.2       7 UNK         0.5089 
     39 O         -73.1123   26.2360  -79.8706 O.2       7 UNK        -0.5125 
     40 CA        -75.4738   26.5418  -79.6678 C.3       6 UNK         0.0408 
     41 CB        -76.2890   25.8085  -80.7458 C.3       6 UNK        -0.1791 
     42 N         -76.2747   26.6670  -78.4523 N.am      6 UNK        -0.4762 
     43 C         -76.3153   27.7635  -77.6816 C.2       6 UNK         0.5007 
     44 O         -75.7598   28.8229  -77.9698 O.2       6 UNK        -0.5032 
     45 CA        -77.1011   27.6683  -76.3556 C.3       5 UNK         0.0783 
     46 C46       -78.5380   28.2049  -76.5632 C.3       11 UNK        -0.0857 
     47 S47       -79.4734   28.2684  -75.0034 S.3       11 UNK        -0.2512 
     48 C48       -79.1436   29.9769  -74.4708 C.3       11 UNK         0.0225 
     49 N         -77.1048   26.3163  -75.7844 N.am      5 UNK        -0.4615 
     50 C         -76.0236   25.5963  -75.4583 C.2       4 UNK         0.5053 
     51 O         -74.8754   26.0312  -75.5126 O.2       4 UNK        -0.5105 
     52 CA        -76.2412   24.1152  -75.1062 C.3       4 UNK         0.0263 
     53 CB        -76.2310   23.8942  -73.5886 C.3       4 UNK        -0.1981 
     54 N         -77.4715   23.5573  -75.6714 N.am      4 UNK        -0.4224 
     55 C         -77.7772   23.4825  -76.9722 C.2       3 UNK         0.4895 
     56 O         -77.0013   23.8183  -77.8701 O.2       3 UNK        -0.5091 
     57 CA        -79.2080   23.0329  -77.3237 C.3       3 UNK         0.0250 
     58 CB        -79.3693   21.5100  -77.1511 C.3       3 UNK        -0.1996 
     59 N         -80.2735   23.7776  -76.6222 N.am      3 UNK        -0.4254 
     60 C         -80.5516   23.8140  -75.3087 C.2       2 UNK         0.5004 
     61 O         -79.9205   23.1892  -74.4517 O.2       2 UNK        -0.5226 
     62 CA        -81.7322   24.6912  -74.8739 C.3       2 UNK         0.0269 
     63 CB        -83.0543   23.9049  -74.9444 C.3       2 UNK        -0.1926 
     64 N         -81.4897   25.1538  -73.5083 N.am      2 UNK        -0.4687 
     65 C         -82.0385   26.2286  -72.9298 C.2       1 UNK         0.5165 
     66 O         -82.8950   26.9255  -73.4784 O.2       1 UNK        -0.5079 
     67 H67       -77.5826   27.0978  -70.6334 H         1 UNK         0.0900 
     68 H68       -77.3733   26.6966  -72.3456 H         1 UNK         0.0900 
     69 H69       -77.0369   25.4904  -71.0915 H         1 UNK         0.0900 
     70 H70       -79.7729   27.7776  -71.6276 H         1 UNK         0.2959 
     71 H71       -81.7218   25.7387  -70.8813 H         1 UNK         0.1079 
     72 H72       -83.3025   27.5336  -70.6971 H         1 UNK         0.0837 
     73 H73       -82.3235   28.6457  -71.5928 H         1 UNK         0.0837 
     74 H74       -81.7214   30.6449  -70.1575 H         1 UNK         0.0685 
     75 H75       -80.6126   30.5519  -68.8177 H         1 UNK         0.0685 
     76 H76       -80.9587   30.1356  -72.4670 H         1 UNK         0.1434 
     77 H77       -76.7442   29.9258  -73.1803 H         1 UNK         0.1329 
     78 H78       -78.2322   29.9147  -69.1570 H         1 UNK         0.1335 
     79 H79       -75.8593   29.8967  -69.5151 H         1 UNK         0.0680 
     80 H80       -75.3870   30.8078  -70.9354 H         1 UNK         0.0680 
     81 H81       -73.2050   29.4056  -69.9236 H         1 UNK         0.1032 
     82 H82       -72.6973   27.9653  -70.7626 H         1 UNK         0.1032 
     83 H83       -73.0671   30.7495  -71.9468 H         1 UNK         0.0461 
     84 H84       -69.1868   29.7103  -72.3067 H         1 UNK         0.3453 
     85 H85       -70.4115   29.0469  -73.3630 H         1 UNK         0.3453 
     86 H86       -73.1616   28.2806  -73.4025 H         1 UNK         0.2984 
     87 H87       -74.1042   29.2496  -75.9375 H         1 UNK         0.0554 
     88 H88       -72.6019   29.2772  -77.9367 H         1 UNK         0.0847 
     89 H89       -71.2640   29.8321  -76.9281 H         1 UNK         0.0847 
     90 H90       -72.6778   30.8496  -77.1626 H         1 UNK         0.0847 
     91 H91       -73.5281   27.1302  -75.8000 H         1 UNK         0.3141 
     92 H92       -70.4558   25.3528  -75.6598 H         1 UNK         0.0743 
     93 H93       -71.7685   24.0183  -74.0190 H         1 UNK         0.0784 
     94 H94       -71.1934   25.5112  -73.2951 H         1 UNK         0.0784 
     95 H95       -72.8778   25.3649  -73.7767 H         1 UNK         0.0784 
     96 H96       -73.3818   25.2591  -76.3296 H         1 UNK         0.3213 
     97 H97       -72.6317   23.6108  -79.4064 H         1 UNK         0.0855 
     98 H98       -72.7989   21.6926  -77.8754 H         1 UNK         0.0814 
     99 H99       -74.3581   21.9978  -78.6219 H         1 UNK         0.0814 
    100 H100      -74.0653   22.4782  -76.9522 H         1 UNK         0.0814 
    101 H101      -75.1420   24.3750  -78.3203 H         1 UNK         0.3105 
    102 H102      -75.2242   27.5301  -80.0596 H         1 UNK         0.0547 
    103 H103      -75.7134   25.7066  -81.6667 H         1 UNK         0.0837 
    104 H104      -76.5783   24.8056  -80.4298 H         1 UNK         0.0837 
    105 H105      -77.1987   26.3557  -80.9923 H         1 UNK         0.0837 
    106 H106      -76.7436   25.8257  -78.1347 H         1 UNK         0.3020 
    107 H107      -76.5880   28.3161  -75.6413 H         1 UNK         0.1245 
    108 H108      -79.0872   27.5666  -77.2582 H         1 UNK         0.0781 
    109 H109      -78.5285   29.1989  -77.0153 H         1 UNK         0.0781 
    110 H110      -79.9958   30.6079  -74.7265 H         1 UNK         0.0836 
    111 H111      -78.2853   30.3894  -75.0027 H         1 UNK         0.0836 
    112 H112      -78.0112   25.8850  -75.6864 H         1 UNK         0.3022 
    113 H113      -75.4007   23.5657  -75.5282 H         1 UNK         0.0747 
    114 H114      -76.1150   22.8373  -73.3484 H         1 UNK         0.0793 
    115 H115      -75.4085   24.4277  -73.1099 H         1 UNK         0.0793 
    116 H116      -77.1609   24.2316  -73.1343 H         1 UNK         0.0793 
    117 H117      -78.2065   23.2940  -75.0157 H         1 UNK         0.3047 
    118 H118      -79.3449   23.2526  -78.3841 H         1 UNK         0.0822 
    119 H119      -79.2448   21.1966  -76.1140 H         1 UNK         0.0807 
    120 H120      -78.6275   20.9711  -77.7422 H         1 UNK         0.0807 
    121 H121      -80.3522   21.1768  -77.4847 H         1 UNK         0.0807 
    122 H122      -80.8560   24.3366  -77.2316 H         1 UNK         0.2946 
    123 H123      -81.7842   25.5601  -75.5344 H         1 UNK         0.1144 
    124 H124      -83.2395   23.5371  -75.9545 H         1 UNK         0.0793 
    125 H125      -83.0422   23.0409  -74.2786 H         1 UNK         0.0793 
    126 H126      -83.9050   24.5281  -74.6681 H         1 UNK         0.0793 
    127 H127      -80.7603   24.6489  -73.0097 H         1 UNK         0.2896 
@<TRIPOS>BOND
     1    1    2 1    
     2    1   67 1    
     3    1   68 1    
     4    1   69 1    
     5    2    3 2    
     6    2    4 am   BACKBONE|DICT|INTERRES
     7    4    5 1    
     8    4   70 1    
     9    5    6 1    
    10    5   65 1    
    11    5   71 1    
    12    6    7 1    
    13    6   72 1    
    14    6   73 1    
    15    7    8 1    
    16    8    9 1    
    17    8   74 1    
    18    8   75 1    
    19    9   10 ar   
    20    9   14 ar   
    21   10   11 ar   
    22   10   76 1    
    23   11   12 ar   
    24   11   48 1    
    25   12   13 ar   
    26   12   77 1    
    27   13   14 ar   
    28   13   15 1    
    29   14   78 1    
    30   15   16 1    
    31   15   79 1    
    32   15   80 1    
    33   16   17 1    
    34   17   18 1    
    35   17   81 1    
    36   17   82 1    
    37   18   19 1    
    38   18   22 1    
    39   18   83 1    
    40   19   20 am   BACKBONE|DICT|INTERRES
    41   19   21 2    
    42   20   84 1    
    43   20   85 1    
    44   22   23 am   BACKBONE|DICT|INTERRES
    45   22   86 1    
    46   23   24 2    
    47   23   25 1    
    48   25   26 1    
    49   25   27 1    
    50   25   87 1    
    51   26   88 1    
    52   26   89 1    
    53   26   90 1    
    54   27   28 am   BACKBONE|DICT|INTERRES
    55   27   91 1    
    56   28   29 2    
    57   28   30 1    
    58   30   31 1    
    59   30   32 1    
    60   30   92 1    
    61   31   93 1    
    62   31   94 1    
    63   31   95 1    
    64   32   33 am   BACKBONE|DICT|INTERRES
    65   32   96 1    
    66   33   34 2    
    67   33   35 1    
    68   35   36 1    
    69   35   37 1    
    70   35   97 1    
    71   36   98 1    
    72   36   99 1    
    73   36  100 1    
    74   37   38 am   BACKBONE|DICT|INTERRES
    75   37  101 1    
    76   38   39 2    
    77   38   40 1    
    78   40   41 1    
    79   40   42 1    
    80   40  102 1    
    81   41  103 1    
    82   41  104 1    
    83   41  105 1    
    84   42   43 am   BACKBONE|DICT|INTERRES
    85   42  106 1    
    86   43   44 2    
    87   43   45 1    
    88   45   46 1    
    89   45   49 1    
    90   45  107 1    
    91   46   47 1    
    92   46  108 1    
    93   46  109 1    
    94   47   48 1    
    95   48  110 1    
    96   48  111 1    
    97   49   50 am   BACKBONE|DICT|INTERRES
    98   49  112 1    
    99   50   51 2    
   100   50   52 1    
   101   52   53 1    
   102   52   54 1    
   103   52  113 1    
   104   53  114 1    
   105   53  115 1    
   106   53  116 1    
   107   54   55 am   BACKBONE|DICT|INTERRES
   108   54  117 1    
   109   55   56 2    
   110   55   57 1    
   111   57   58 1    
   112   57   59 1    
   113   57  118 1    
   114   58  119 1    
   115   58  120 1    
   116   58  121 1    
   117   59   60 am   BACKBONE|DICT|INTERRES
   118   59  122 1    
   119   60   61 2    
   120   60   62 1    
   121   62   63 1    
   122   62   64 1    
   123   62  123 1    
   124   63  124 1    
   125   63  125 1    
   126   63  126 1    
   127   64   65 am   BACKBONE|DICT|INTERRES
   128   64  127 1    
   129   65   66 2    
@<TRIPOS>SUBSTRUCTURE
     1 UNK         1 GROUP             0       ****    0 ROOT    
