@<TRIPOS>MOLECULE
3R135
127   129    1
SMALL
USER_CHARGES


@<TRIPOS>ATOM
      1 CA        -83.5447   28.7960  -71.6233 C.3       0 UNK        -0.1998 
      2 C         -82.3520   28.3796  -72.4699 C.2       0 UNK         0.4909 
      3 O         -81.6884   27.3962  -72.1413 O.2       0 UNK        -0.5240 
      4 N         -82.0796   29.1232  -73.5521 N.am      1 UNK        -0.4739 
      5 CA        -80.9961   28.9431  -74.5342 C.3       1 UNK         0.0864 
      6 C6        -79.5664   28.9973  -73.9298 C.3       11 UNK        -0.0881 
      7 S7        -79.1836   30.6047  -73.1423 S.3       11 UNK        -0.2682 
      8 C8        -79.2660   30.2430  -71.3540 C.3       11 UNK         0.0289 
      9 C9        -78.1258   29.3457  -70.8953 C.ar      11 UNK        -0.0687 
     10 C10       -78.3243   27.9673  -70.7879 C.ar      11 UNK        -0.0823 
     11 C11       -77.2636   27.1164  -70.4636 C.ar      11 UNK        -0.0830 
     12 C12       -76.0142   27.6670  -70.1649 C.ar      11 UNK        -0.1021 
     13 C13       -75.8143   29.0498  -70.2158 C.ar      11 UNK        -0.0753 
     14 C14       -76.8716   29.8854  -70.5914 C.ar      11 UNK        -0.0933 
     15 C15       -74.4521   29.6285  -69.8629 C.3       11 UNK         0.0166 
     16 S16       -73.3436   29.6728  -71.3046 S.3       11 UNK        -0.2615 
     17 C17       -73.8788   31.2266  -72.1046 C.3       11 UNK        -0.0865 
     18 CA        -72.9434   31.7021  -73.2524 C.3       10 UNK         0.0862 
     19 C         -71.5262   32.1126  -72.7703 C.2       10 UNK         0.5551 
     20 N         -71.4272   33.1587  -71.9609 N.am      10 UNK        -0.7319 
     21 O         -70.5174   31.5010  -73.1182 O.2       10 UNK        -0.5018 
     22 N         -72.8869   30.7354  -74.3532 N.am      10 UNK        -0.4509 
     23 C         -73.8382   30.5561  -75.2721 C.2       10 UNK         0.4899 
     24 O         -74.8707   31.2252  -75.3200 O.2       10 UNK        -0.4839 
     25 CA        -73.6376   29.4380  -76.3083 C.3       9 UNK         0.0222 
     26 CB        -72.9295   29.9613  -77.5728 C.3       9 UNK        -0.1966 
     27 N         -73.0039   28.2189  -75.7872 N.am      9 UNK        -0.4218 
     28 C         -71.7315   28.0091  -75.4170 C.2       9 UNK         0.5020 
     29 O         -70.8612   28.8793  -75.4117 O.2       9 UNK        -0.5274 
     30 CA        -71.3706   26.5820  -74.9739 C.3       8 UNK         0.0270 
     31 CB        -71.6738   26.3929  -73.4776 C.3       8 UNK        -0.1976 
     32 N         -72.1074   25.5859  -75.7564 N.am      8 UNK        -0.4313 
     33 C         -71.6772   25.0445  -76.9053 C.2       8 UNK         0.5041 
     34 O         -70.5484   25.2209  -77.3655 O.2       8 UNK        -0.5577 
     35 CA        -72.6775   24.1696  -77.6882 C.3       7 UNK         0.0284 
     36 CB        -72.6018   22.7082  -77.2182 C.3       7 UNK        -0.1958 
     37 N         -74.0594   24.6429  -77.5759 N.am      7 UNK        -0.4454 
     38 C         -74.5131   25.8043  -78.0700 C.2       7 UNK         0.5089 
     39 O         -73.8524   26.5345  -78.8078 O.2       7 UNK        -0.5125 
     40 CA        -75.9245   26.2564  -77.6426 C.3       6 UNK         0.0408 
     41 CB        -76.9244   26.0633  -78.7926 C.3       6 UNK        -0.1791 
     42 N         -76.4455   25.6079  -76.4326 N.am      6 UNK        -0.4762 
     43 C         -75.8756   25.6144  -75.2179 C.2       6 UNK         0.5007 
     44 O         -74.8041   26.1690  -74.9760 O.2       6 UNK        -0.5032 
     45 CA        -76.5962   24.8433  -74.0978 C.3       5 UNK         0.0783 
     46 C46       -77.5460   25.7901  -73.3348 C.3       11 UNK        -0.0857 
     47 S47       -78.3831   24.9845  -71.9236 S.3       11 UNK        -0.2512 
     48 C48       -77.4422   25.6007  -70.4802 C.3       11 UNK         0.0225 
     49 N         -77.2920   23.6677  -74.6250 N.am      5 UNK        -0.4615 
     50 C         -76.6983   22.5259  -74.9928 C.2       4 UNK         0.5053 
     51 O         -75.4868   22.3269  -74.9058 O.2       4 UNK        -0.5105 
     52 CA        -77.6108   21.4292  -75.5699 C.3       4 UNK         0.0263 
     53 CB        -78.1950   20.5670  -74.4395 C.3       4 UNK        -0.1981 
     54 N         -78.7028   21.9793  -76.3782 N.am      4 UNK        -0.4224 
     55 C         -78.5370   22.5412  -77.5843 C.2       3 UNK         0.4895 
     56 O         -77.4634   22.5604  -78.1859 O.2       3 UNK        -0.5091 
     57 CA        -79.7654   23.2232  -78.2174 C.3       3 UNK         0.0250 
     58 CB        -80.5111   22.2400  -79.1338 C.3       3 UNK        -0.1996 
     59 N         -80.7093   23.8001  -77.2498 N.am      3 UNK        -0.4254 
     60 C         -80.4109   24.7635  -76.3662 C.2       2 UNK         0.5004 
     61 O         -79.2812   25.2362  -76.2359 O.2       2 UNK        -0.5226 
     62 CA        -81.5494   25.2136  -75.4334 C.3       2 UNK         0.0269 
     63 CB        -81.7636   24.1728  -74.3212 C.3       2 UNK        -0.1926 
     64 N         -81.3107   26.5146  -74.8010 N.am      2 UNK        -0.4687 
     65 C         -81.2027   27.6953  -75.4236 C.2       1 UNK         0.5165 
     66 O         -81.3058   27.8346  -76.6436 O.2       1 UNK        -0.5079 
     67 H67       -83.2224   29.0129  -70.6053 H         1 UNK         0.0900 
     68 H68       -84.2762   27.9894  -71.5849 H         1 UNK         0.0900 
     69 H69       -84.0377   29.6836  -72.0194 H         1 UNK         0.0900 
     70 H70       -82.6894   29.9032  -73.7554 H         1 UNK         0.2959 
     71 H71       -81.0822   29.7966  -75.2093 H         1 UNK         0.1079 
     72 H72       -79.4166   28.1837  -73.2243 H         1 UNK         0.0837 
     73 H73       -78.8224   28.8435  -74.7140 H         1 UNK         0.0837 
     74 H74       -79.2278   31.1856  -70.8061 H         1 UNK         0.0685 
     75 H75       -80.2292   29.7942  -71.1120 H         1 UNK         0.0685 
     76 H76       -79.2955   27.5476  -71.0116 H         1 UNK         0.1434 
     77 H77       -75.1878   27.0196  -69.9042 H         1 UNK         0.1329 
     78 H78       -76.7172   30.9535  -70.6581 H         1 UNK         0.1335 
     79 H79       -74.5566   30.6273  -69.4364 H         1 UNK         0.0680 
     80 H80       -73.9870   29.0186  -69.0868 H         1 UNK         0.0680 
     81 H81       -73.9682   32.0057  -71.3462 H         1 UNK         0.1032 
     82 H82       -74.8880   31.0799  -72.4921 H         1 UNK         0.1032 
     83 H83       -73.3713   32.6176  -73.6659 H         1 UNK         0.0461 
     84 H84       -72.2414   33.6786  -71.6734 H         1 UNK         0.3453 
     85 H85       -70.5151   33.4397  -71.6362 H         1 UNK         0.3453 
     86 H86       -72.0285   30.1951  -74.4173 H         1 UNK         0.2984 
     87 H87       -74.6380   29.1267  -76.6095 H         1 UNK         0.0554 
     88 H88       -72.8487   29.1827  -78.3317 H         1 UNK         0.0847 
     89 H89       -71.9254   30.3280  -77.3587 H         1 UNK         0.0847 
     90 H90       -73.4867   30.7882  -78.0147 H         1 UNK         0.0847 
     91 H91       -73.6507   27.4504  -75.6247 H         1 UNK         0.3141 
     92 H92       -70.2973   26.4440  -75.1218 H         1 UNK         0.0743 
     93 H93       -72.7312   26.5377  -73.2523 H         1 UNK         0.0784 
     94 H94       -71.3922   25.3957  -73.1393 H         1 UNK         0.0784 
     95 H95       -71.1149   27.1103  -72.8748 H         1 UNK         0.0784 
     96 H96       -73.0691   25.4245  -75.4751 H         1 UNK         0.3213 
     97 H97       -72.3945   24.2065  -78.7425 H         1 UNK         0.0855 
     98 H98       -72.8935   22.6035  -76.1722 H         1 UNK         0.0814 
     99 H99       -71.5869   22.3199  -77.3147 H         1 UNK         0.0814 
    100 H100      -73.2518   22.0657  -77.8126 H         1 UNK         0.0814 
    101 H101      -74.6875   24.0964  -77.0030 H         1 UNK         0.3105 
    102 H102      -75.8683   27.3240  -77.4281 H         1 UNK         0.0547 
    103 H103      -76.6140   26.6224  -79.6762 H         1 UNK         0.0837 
    104 H104      -77.0042   25.0165  -79.0844 H         1 UNK         0.0837 
    105 H105      -77.9198   26.4152  -78.5202 H         1 UNK         0.0837 
    106 H106      -77.3766   25.2046  -76.5040 H         1 UNK         0.3020 
    107 H107      -75.8273   24.5013  -73.4008 H         1 UNK         0.1245 
    108 H108      -78.3233   26.1663  -74.0006 H         1 UNK         0.0781 
    109 H109      -77.0005   26.6722  -72.9983 H         1 UNK         0.0781 
    110 H110      -76.4716   25.1023  -70.4710 H         1 UNK         0.0836 
    111 H111      -77.9553   25.2953  -69.5677 H         1 UNK         0.0836 
    112 H112      -78.2838   23.7795  -74.7780 H         1 UNK         0.3022 
    113 H113      -76.9985   20.7881  -76.2082 H         1 UNK         0.0747 
    114 H114      -78.7917   19.7448  -74.8353 H         1 UNK         0.0793 
    115 H115      -77.4000   20.1269  -73.8357 H         1 UNK         0.0793 
    116 H116      -78.8277   21.1504  -73.7691 H         1 UNK         0.0793 
    117 H117      -79.6244   21.9858  -75.9668 H         1 UNK         0.3047 
    118 H118      -79.3929   24.0444  -78.8332 H         1 UNK         0.0822 
    119 H119      -81.3181   22.7346  -79.6749 H         1 UNK         0.0807 
    120 H120      -80.9411   21.4096  -78.5724 H         1 UNK         0.0807 
    121 H121      -79.8381   21.8148  -79.8800 H         1 UNK         0.0807 
    122 H122      -81.6559   23.4488  -77.2840 H         1 UNK         0.2946 
    123 H123      -82.4616   25.2973  -76.0279 H         1 UNK         0.1144 
    124 H124      -80.8752   24.0628  -73.6976 H         1 UNK         0.0793 
    125 H125      -81.9996   23.1905  -74.7323 H         1 UNK         0.0793 
    126 H126      -82.5920   24.4545  -73.6706 H         1 UNK         0.0793 
    127 H127      -81.2601   26.5306  -73.7857 H         1 UNK         0.2896 
@<TRIPOS>BOND
     1    1    2 1    
     2    1   67 1    
     3    1   68 1    
     4    1   69 1    
     5    2    3 2    
     6    2    4 am   BACKBONE|DICT|INTERRES
     7    4    5 1    
     8    4   70 1    
     9    5    6 1    
    10    5   65 1    
    11    5   71 1    
    12    6    7 1    
    13    6   72 1    
    14    6   73 1    
    15    7    8 1    
    16    8    9 1    
    17    8   74 1    
    18    8   75 1    
    19    9   10 ar   
    20    9   14 ar   
    21   10   11 ar   
    22   10   76 1    
    23   11   12 ar   
    24   11   48 1    
    25   12   13 ar   
    26   12   77 1    
    27   13   14 ar   
    28   13   15 1    
    29   14   78 1    
    30   15   16 1    
    31   15   79 1    
    32   15   80 1    
    33   16   17 1    
    34   17   18 1    
    35   17   81 1    
    36   17   82 1    
    37   18   19 1    
    38   18   22 1    
    39   18   83 1    
    40   19   20 am   BACKBONE|DICT|INTERRES
    41   19   21 2    
    42   20   84 1    
    43   20   85 1    
    44   22   23 am   BACKBONE|DICT|INTERRES
    45   22   86 1    
    46   23   24 2    
    47   23   25 1    
    48   25   26 1    
    49   25   27 1    
    50   25   87 1    
    51   26   88 1    
    52   26   89 1    
    53   26   90 1    
    54   27   28 am   BACKBONE|DICT|INTERRES
    55   27   91 1    
    56   28   29 2    
    57   28   30 1    
    58   30   31 1    
    59   30   32 1    
    60   30   92 1    
    61   31   93 1    
    62   31   94 1    
    63   31   95 1    
    64   32   33 am   BACKBONE|DICT|INTERRES
    65   32   96 1    
    66   33   34 2    
    67   33   35 1    
    68   35   36 1    
    69   35   37 1    
    70   35   97 1    
    71   36   98 1    
    72   36   99 1    
    73   36  100 1    
    74   37   38 am   BACKBONE|DICT|INTERRES
    75   37  101 1    
    76   38   39 2    
    77   38   40 1    
    78   40   41 1    
    79   40   42 1    
    80   40  102 1    
    81   41  103 1    
    82   41  104 1    
    83   41  105 1    
    84   42   43 am   BACKBONE|DICT|INTERRES
    85   42  106 1    
    86   43   44 2    
    87   43   45 1    
    88   45   46 1    
    89   45   49 1    
    90   45  107 1    
    91   46   47 1    
    92   46  108 1    
    93   46  109 1    
    94   47   48 1    
    95   48  110 1    
    96   48  111 1    
    97   49   50 am   BACKBONE|DICT|INTERRES
    98   49  112 1    
    99   50   51 2    
   100   50   52 1    
   101   52   53 1    
   102   52   54 1    
   103   52  113 1    
   104   53  114 1    
   105   53  115 1    
   106   53  116 1    
   107   54   55 am   BACKBONE|DICT|INTERRES
   108   54  117 1    
   109   55   56 2    
   110   55   57 1    
   111   57   58 1    
   112   57   59 1    
   113   57  118 1    
   114   58  119 1    
   115   58  120 1    
   116   58  121 1    
   117   59   60 am   BACKBONE|DICT|INTERRES
   118   59  122 1    
   119   60   61 2    
   120   60   62 1    
   121   62   63 1    
   122   62   64 1    
   123   62  123 1    
   124   63  124 1    
   125   63  125 1    
   126   63  126 1    
   127   64   65 am   BACKBONE|DICT|INTERRES
   128   64  127 1    
   129   65   66 2    
@<TRIPOS>SUBSTRUCTURE
     1 UNK         1 GROUP             0       ****    0 ROOT    
