@<TRIPOS>MOLECULE
3R135
127   129    1
SMALL
USER_CHARGES


@<TRIPOS>ATOM
      1 CA        -80.1058   27.1444  -70.4523 C.3       0 UNK        -0.1998 
      2 C         -80.5408   27.1305  -71.9093 C.2       0 UNK         0.4909 
      3 O         -80.1346   26.2431  -72.6580 O.2       0 UNK        -0.5240 
      4 N         -81.3847   28.0930  -72.3090 N.am      1 UNK        -0.4739 
      5 CA        -81.8616   28.3317  -73.6839 C.3       1 UNK         0.0864 
      6 C6        -80.7522   28.8825  -74.6212 C.3       11 UNK        -0.0881 
      7 S7        -80.0812   30.4786  -74.0392 S.3       11 UNK        -0.2682 
      8 C8        -78.3009   30.2781  -74.3556 C.3       11 UNK         0.0289 
      9 C9        -77.5853   29.5955  -73.1995 C.ar      11 UNK        -0.0687 
     10 C10       -77.3939   28.2114  -73.2017 C.ar      11 UNK        -0.0823 
     11 C11       -76.7010   27.5848  -72.1607 C.ar      11 UNK        -0.0830 
     12 C12       -76.2098   28.3578  -71.1043 C.ar      11 UNK        -0.1021 
     13 C13       -76.4154   29.7402  -71.0781 C.ar      11 UNK        -0.0753 
     14 C14       -77.0983   30.3547  -72.1317 C.ar      11 UNK        -0.0933 
     15 C15       -75.9312   30.5581  -69.8903 C.3       11 UNK         0.0166 
     16 S16       -74.1441   30.8898  -69.9651 S.3       11 UNK        -0.2615 
     17 C17       -74.0450   32.2120  -71.2257 C.3       11 UNK        -0.0865 
     18 CA        -73.2174   31.8252  -72.4791 C.3       10 UNK         0.0862 
     19 C         -71.6978   31.6834  -72.1594 C.2       10 UNK         0.5551 
     20 N         -71.0860   30.5138  -72.3058 N.am      10 UNK        -0.7319 
     21 O         -71.0604   32.6636  -71.7815 O.2       10 UNK        -0.5018 
     22 N         -73.8165   30.6885  -73.1925 N.am      10 UNK        -0.4509 
     23 C         -73.5545   30.3689  -74.4642 C.2       10 UNK         0.4899 
     24 O         -72.8547   31.0463  -75.2197 O.2       10 UNK        -0.4839 
     25 CA        -74.1692   29.0566  -74.9759 C.3       9 UNK         0.0222 
     26 CB        -75.0467   29.3199  -76.2112 C.3       9 UNK        -0.1966 
     27 N         -73.1448   28.0582  -75.2981 N.am      9 UNK        -0.4218 
     28 C         -72.2295   27.5842  -74.4347 C.2       9 UNK         0.5020 
     29 O         -72.1548   27.9429  -73.2576 O.2       9 UNK        -0.5274 
     30 CA        -71.2220   26.5330  -74.9379 C.3       8 UNK         0.0270 
     31 CB        -71.4055   25.1984  -74.1949 C.3       8 UNK        -0.1976 
     32 N         -71.2931   26.3002  -76.3829 N.am      8 UNK        -0.4313 
     33 C         -70.6700   27.0609  -77.2956 C.2       8 UNK         0.5041 
     34 O         -69.9476   28.0145  -77.0032 O.2       8 UNK        -0.5577 
     35 CA        -70.8724   26.7196  -78.7854 C.3       7 UNK         0.0284 
     36 CB        -69.6334   25.9998  -79.3434 C.3       7 UNK        -0.1958 
     37 N         -72.0614   25.9122  -79.0717 N.am      7 UNK        -0.4454 
     38 C         -73.3267   26.3056  -78.8773 C.2       7 UNK         0.5089 
     39 O         -73.6318   27.4065  -78.4179 O.2       7 UNK        -0.5125 
     40 CA        -74.4452   25.2933  -79.1999 C.3       6 UNK         0.0408 
     41 CB        -73.9540   23.9939  -79.8779 C.3       6 UNK        -0.1791 
     42 N         -75.2392   24.9685  -78.0099 N.am      6 UNK        -0.4762 
     43 C         -74.7784   24.5225  -76.8293 C.2       6 UNK         0.5007 
     44 O         -73.5865   24.3228  -76.5891 O.2       6 UNK        -0.5032 
     45 CA        -75.8358   24.2414  -75.7429 C.3       5 UNK         0.0783 
     46 C46       -76.1340   25.5055  -74.8930 C.3       11 UNK        -0.0857 
     47 S47       -75.2219   25.5288  -73.3159 S.3       11 UNK        -0.2512 
     48 C48       -76.5141   26.0724  -72.1512 C.3       11 UNK         0.0225 
     49 N         -77.0720   23.6845  -76.2995 N.am      5 UNK        -0.4615 
     50 C         -77.2149   22.4652  -76.8298 C.2       4 UNK         0.5053 
     51 O         -76.2885   21.6658  -76.9710 O.2       4 UNK        -0.5105 
     52 CA        -78.6567   22.0669  -77.2053 C.3       4 UNK         0.0263 
     53 CB        -78.7323   20.6950  -77.9014 C.3       4 UNK        -0.1981 
     54 N         -79.5164   22.0492  -76.0166 N.am      4 UNK        -0.4224 
     55 C         -80.0274   23.1331  -75.4173 C.2       3 UNK         0.4895 
     56 O         -79.8845   24.2807  -75.8480 O.2       3 UNK        -0.5091 
     57 CA        -80.7321   22.8935  -74.0753 C.3       3 UNK         0.0250 
     58 CB        -79.7002   22.8715  -72.9347 C.3       3 UNK        -0.1996 
     59 N         -81.7194   23.9390  -73.8047 N.am      3 UNK        -0.4254 
     60 C         -82.9914   23.8960  -74.2265 C.2       2 UNK         0.5004 
     61 O         -83.4589   22.9582  -74.8750 O.2       2 UNK        -0.5226 
     62 CA        -83.9219   25.0644  -73.8475 C.3       2 UNK         0.0269 
     63 CB        -84.8643   24.6486  -72.7054 C.3       2 UNK        -0.1926 
     64 N         -83.2114   26.2821  -73.4522 N.am      2 UNK        -0.4687 
     65 C         -82.6140   27.1272  -74.3040 C.2       1 UNK         0.5165 
     66 O         -82.6606   26.9888  -75.5277 O.2       1 UNK        -0.5079 
     67 H67       -79.0339   27.3267  -70.3855 H         1 UNK         0.0900 
     68 H68       -80.3180   26.1821  -69.9876 H         1 UNK         0.0900 
     69 H69       -80.6170   27.9189  -69.8811 H         1 UNK         0.0900 
     70 H70       -81.6882   28.7812  -71.6339 H         1 UNK         0.2959 
     71 H71       -82.6227   29.1091  -73.5995 H         1 UNK         0.1079 
     72 H72       -79.9533   28.1483  -74.7288 H         1 UNK         0.0837 
     73 H73       -81.1402   29.0550  -75.6267 H         1 UNK         0.0837 
     74 H74       -78.1507   29.7245  -75.2836 H         1 UNK         0.0685 
     75 H75       -77.8642   31.2642  -74.5205 H         1 UNK         0.0685 
     76 H76       -77.7900   27.6223  -74.0146 H         1 UNK         0.1434 
     77 H77       -75.6808   27.8829  -70.2891 H         1 UNK         0.1329 
     78 H78       -77.2603   31.4237  -72.1189 H         1 UNK         0.1335 
     79 H79       -76.4785   31.4990  -69.8139 H         1 UNK         0.0680 
     80 H80       -76.1443   30.0118  -68.9703 H         1 UNK         0.0680 
     81 H81       -73.6237   33.1019  -70.7541 H         1 UNK         0.1032 
     82 H82       -75.0499   32.5037  -71.5326 H         1 UNK         0.1032 
     83 H83       -73.2815   32.6779  -73.1581 H         1 UNK         0.0461 
     84 H84       -70.1035   30.4425  -72.0970 H         1 UNK         0.3453 
     85 H85       -71.5988   29.6911  -72.6100 H         1 UNK         0.3453 
     86 H86       -74.3721   30.0602  -72.6275 H         1 UNK         0.2984 
     87 H87       -74.7981   28.6324  -74.1925 H         1 UNK         0.0554 
     88 H88       -75.5617   28.4199  -76.5439 H         1 UNK         0.0847 
     89 H89       -75.8075   30.0701  -75.9960 H         1 UNK         0.0847 
     90 H90       -74.4567   29.6918  -77.0500 H         1 UNK         0.0847 
     91 H91       -73.1144   27.7402  -76.2590 H         1 UNK         0.3141 
     92 H92       -70.2260   26.9075  -74.6921 H         1 UNK         0.0743 
     93 H93       -71.2531   25.3270  -73.1224 H         1 UNK         0.0784 
     94 H94       -72.4079   24.7932  -74.3283 H         1 UNK         0.0784 
     95 H95       -70.6905   24.4497  -74.5358 H         1 UNK         0.0784 
     96 H96       -71.9026   25.5475  -76.6894 H         1 UNK         0.3213 
     97 H97       -70.9840   27.6677  -79.3163 H         1 UNK         0.0855 
     98 H98       -68.7311   26.5907  -79.1782 H         1 UNK         0.0814 
     99 H99       -69.7172   25.8368  -80.4180 H         1 UNK         0.0814 
    100 H100      -69.4795   25.0315  -78.8654 H         1 UNK         0.0814 
    101 H101      -71.9015   24.9792  -79.4229 H         1 UNK         0.3105 
    102 H102      -75.1177   25.7961  -79.8963 H         1 UNK         0.0547 
    103 H103      -73.4199   24.2060  -80.8052 H         1 UNK         0.0837 
    104 H104      -73.2937   23.4130  -79.2327 H         1 UNK         0.0837 
    105 H105      -74.7954   23.3522  -80.1399 H         1 UNK         0.0837 
    106 H106      -76.2346   25.1196  -78.0938 H         1 UNK         0.3020 
    107 H107      -75.4165   23.4665  -75.0964 H         1 UNK         0.1245 
    108 H108      -75.9251   26.4295  -75.4328 H         1 UNK         0.0781 
    109 H109      -77.1988   25.5457  -74.6604 H         1 UNK         0.0781 
    110 H110      -76.2337   25.7372  -71.1517 H         1 UNK         0.0836 
    111 H111      -77.4603   25.5773  -72.3723 H         1 UNK         0.0836 
    112 H112      -77.9162   24.2378  -76.1871 H         1 UNK         0.3022 
    113 H113      -79.0321   22.8161  -77.9059 H         1 UNK         0.0747 
    114 H114      -79.7532   20.4591  -78.2022 H         1 UNK         0.0793 
    115 H115      -78.1192   20.6812  -78.8036 H         1 UNK         0.0793 
    116 H116      -78.3787   19.8912  -77.2543 H         1 UNK         0.0793 
    117 H117      -79.6419   21.1498  -75.5740 H         1 UNK         0.3047 
    118 H118      -81.2323   21.9228  -74.1060 H         1 UNK         0.0822 
    119 H119      -80.1809   22.7358  -71.9657 H         1 UNK         0.0807 
    120 H120      -79.1230   23.7957  -72.8951 H         1 UNK         0.0807 
    121 H121      -78.9906   22.0530  -73.0618 H         1 UNK         0.0807 
    122 H122      -81.3681   24.7823  -73.3608 H         1 UNK         0.2946 
    123 H123      -84.5300   25.2874  -74.7276 H         1 UNK         0.1144 
    124 H124      -85.5812   25.4369  -72.4748 H         1 UNK         0.0793 
    125 H125      -84.3144   24.4152  -71.7928 H         1 UNK         0.0793 
    126 H126      -85.4383   23.7611  -72.9757 H         1 UNK         0.0793 
    127 H127      -83.1224   26.4628  -72.4625 H         1 UNK         0.2896 
@<TRIPOS>BOND
     1    1    2 1    
     2    1   67 1    
     3    1   68 1    
     4    1   69 1    
     5    2    3 2    
     6    2    4 am   BACKBONE|DICT|INTERRES
     7    4    5 1    
     8    4   70 1    
     9    5    6 1    
    10    5   65 1    
    11    5   71 1    
    12    6    7 1    
    13    6   72 1    
    14    6   73 1    
    15    7    8 1    
    16    8    9 1    
    17    8   74 1    
    18    8   75 1    
    19    9   10 ar   
    20    9   14 ar   
    21   10   11 ar   
    22   10   76 1    
    23   11   12 ar   
    24   11   48 1    
    25   12   13 ar   
    26   12   77 1    
    27   13   14 ar   
    28   13   15 1    
    29   14   78 1    
    30   15   16 1    
    31   15   79 1    
    32   15   80 1    
    33   16   17 1    
    34   17   18 1    
    35   17   81 1    
    36   17   82 1    
    37   18   19 1    
    38   18   22 1    
    39   18   83 1    
    40   19   20 am   BACKBONE|DICT|INTERRES
    41   19   21 2    
    42   20   84 1    
    43   20   85 1    
    44   22   23 am   BACKBONE|DICT|INTERRES
    45   22   86 1    
    46   23   24 2    
    47   23   25 1    
    48   25   26 1    
    49   25   27 1    
    50   25   87 1    
    51   26   88 1    
    52   26   89 1    
    53   26   90 1    
    54   27   28 am   BACKBONE|DICT|INTERRES
    55   27   91 1    
    56   28   29 2    
    57   28   30 1    
    58   30   31 1    
    59   30   32 1    
    60   30   92 1    
    61   31   93 1    
    62   31   94 1    
    63   31   95 1    
    64   32   33 am   BACKBONE|DICT|INTERRES
    65   32   96 1    
    66   33   34 2    
    67   33   35 1    
    68   35   36 1    
    69   35   37 1    
    70   35   97 1    
    71   36   98 1    
    72   36   99 1    
    73   36  100 1    
    74   37   38 am   BACKBONE|DICT|INTERRES
    75   37  101 1    
    76   38   39 2    
    77   38   40 1    
    78   40   41 1    
    79   40   42 1    
    80   40  102 1    
    81   41  103 1    
    82   41  104 1    
    83   41  105 1    
    84   42   43 am   BACKBONE|DICT|INTERRES
    85   42  106 1    
    86   43   44 2    
    87   43   45 1    
    88   45   46 1    
    89   45   49 1    
    90   45  107 1    
    91   46   47 1    
    92   46  108 1    
    93   46  109 1    
    94   47   48 1    
    95   48  110 1    
    96   48  111 1    
    97   49   50 am   BACKBONE|DICT|INTERRES
    98   49  112 1    
    99   50   51 2    
   100   50   52 1    
   101   52   53 1    
   102   52   54 1    
   103   52  113 1    
   104   53  114 1    
   105   53  115 1    
   106   53  116 1    
   107   54   55 am   BACKBONE|DICT|INTERRES
   108   54  117 1    
   109   55   56 2    
   110   55   57 1    
   111   57   58 1    
   112   57   59 1    
   113   57  118 1    
   114   58  119 1    
   115   58  120 1    
   116   58  121 1    
   117   59   60 am   BACKBONE|DICT|INTERRES
   118   59  122 1    
   119   60   61 2    
   120   60   62 1    
   121   62   63 1    
   122   62   64 1    
   123   62  123 1    
   124   63  124 1    
   125   63  125 1    
   126   63  126 1    
   127   64   65 am   BACKBONE|DICT|INTERRES
   128   64  127 1    
   129   65   66 2    
@<TRIPOS>SUBSTRUCTURE
     1 UNK         1 GROUP             0       ****    0 ROOT    
