@<TRIPOS>MOLECULE
3R135
127   129    1
SMALL
USER_CHARGES


@<TRIPOS>ATOM
      1 CA        -83.5660   26.0014  -74.7618 C.3       0 UNK        -0.1998 
      2 C         -82.3968   26.8160  -75.2923 C.2       0 UNK         0.4909 
      3 O         -82.1672   26.8403  -76.5023 O.2       0 UNK        -0.5240 
      4 N         -81.6466   27.4711  -74.3957 N.am      1 UNK        -0.4739 
      5 CA        -80.4320   28.2429  -74.6871 C.3       1 UNK         0.0864 
      6 C6        -79.8627   28.9625  -73.4317 C.3       11 UNK        -0.0881 
      7 S7        -79.8758   27.9608  -71.9025 S.3       11 UNK        -0.2682 
      8 C8        -78.9505   29.0375  -70.7509 C.3       11 UNK         0.0289 
      9 C9        -77.4488   28.7598  -70.6381 C.ar      11 UNK        -0.0687 
     10 C10       -76.8747   27.5457  -71.0383 C.ar      11 UNK        -0.0823 
     11 C11       -75.5122   27.3000  -70.8471 C.ar      11 UNK        -0.0830 
     12 C12       -74.7189   28.2724  -70.2328 C.ar      11 UNK        -0.1021 
     13 C13       -75.2744   29.4852  -69.8099 C.ar      11 UNK        -0.0753 
     14 C14       -76.6354   29.7232  -70.0299 C.ar      11 UNK        -0.0933 
     15 C15       -74.4425   30.4995  -69.0260 C.3       11 UNK         0.0166 
     16 S16       -72.7734   30.7757  -69.7072 S.3       11 UNK        -0.2615 
     17 C17       -73.0695   32.1138  -70.9136 C.3       11 UNK        -0.0865 
     18 CA        -73.7479   31.6505  -72.2345 C.3       10 UNK         0.0862 
     19 C         -73.9827   32.8345  -73.2222 C.2       10 UNK         0.5551 
     20 N         -73.7942   32.6716  -74.5273 N.am      10 UNK        -0.7319 
     21 O         -74.3771   33.9189  -72.8004 O.2       10 UNK        -0.5018 
     22 N         -73.1302   30.4595  -72.8379 N.am      10 UNK        -0.4509 
     23 C         -71.8729   30.3341  -73.2854 C.2       10 UNK         0.4899 
     24 O         -70.9981   31.1917  -73.1657 O.2       10 UNK        -0.4839 
     25 CA        -71.5605   29.0330  -74.0495 C.3       9 UNK         0.0222 
     26 CB        -71.0572   27.9508  -73.0811 C.3       9 UNK        -0.1966 
     27 N         -72.7234   28.5278  -74.7902 N.am      9 UNK        -0.4218 
     28 C         -73.3452   29.1920  -75.7744 C.2       9 UNK         0.5020 
     29 O         -72.9243   30.2388  -76.2711 O.2       9 UNK        -0.5274 
     30 CA        -74.7030   28.6341  -76.2240 C.3       8 UNK         0.0270 
     31 CB        -75.7106   29.7661  -76.4983 C.3       8 UNK        -0.1976 
     32 N         -74.6028   27.7671  -77.3990 N.am      8 UNK        -0.4313 
     33 C         -74.0455   26.5494  -77.4051 C.2       8 UNK         0.5041 
     34 O         -73.4479   26.0676  -76.4428 O.2       8 UNK        -0.5577 
     35 CA        -74.2449   25.7146  -78.6793 C.3       7 UNK         0.0284 
     36 CB        -72.9416   25.5534  -79.4872 C.3       7 UNK        -0.1958 
     37 N         -74.8916   24.4424  -78.3305 N.am      7 UNK        -0.4454 
     38 C         -74.3585   23.3116  -77.8436 C.2       7 UNK         0.5089 
     39 O         -73.1572   23.0378  -77.8204 O.2       7 UNK        -0.5125 
     40 CA        -75.3896   22.3394  -77.2413 C.3       6 UNK         0.0408 
     41 CB        -74.8251   20.9320  -76.9505 C.3       6 UNK        -0.1791 
     42 N         -76.0133   22.9441  -76.0560 N.am      6 UNK        -0.4762 
     43 C         -75.4287   23.2380  -74.8811 C.2       6 UNK         0.5007 
     44 O         -74.2983   22.8676  -74.5635 O.2       6 UNK        -0.5032 
     45 CA        -76.2471   24.0806  -73.8760 C.3       5 UNK         0.0783 
     46 C46       -75.8241   25.5729  -73.8862 C.3       11 UNK        -0.0857 
     47 S47       -74.3006   25.9203  -72.9461 S.3       11 UNK        -0.2512 
     48 C48       -74.9096   25.9554  -71.2299 C.3       11 UNK         0.0225 
     49 N         -77.6919   23.9731  -74.0844 N.am      5 UNK        -0.4615 
     50 C         -78.4483   22.9173  -73.7627 C.2       4 UNK         0.5053 
     51 O         -78.0085   21.8817  -73.2641 O.2       4 UNK        -0.5105 
     52 CA        -79.9511   23.0479  -74.0505 C.3       4 UNK         0.0263 
     53 CB        -80.6430   23.8884  -72.9637 C.3       4 UNK        -0.1981 
     54 N         -80.1875   23.6564  -75.3605 N.am      4 UNK        -0.4224 
     55 C         -80.2234   22.9773  -76.5158 C.2       3 UNK         0.4895 
     56 O         -80.1141   21.7537  -76.5948 O.2       3 UNK        -0.5091 
     57 CA        -80.4110   23.7943  -77.8064 C.3       3 UNK         0.0250 
     58 CB        -81.8953   23.8440  -78.2023 C.3       3 UNK        -0.1996 
     59 N         -79.8842   25.1575  -77.6982 N.am      3 UNK        -0.4254 
     60 C         -78.5762   25.4521  -77.7341 C.2       2 UNK         0.5004 
     61 O         -77.6909   24.6150  -77.9070 O.2       2 UNK        -0.5226 
     62 CA        -78.1642   26.9164  -77.5106 C.3       2 UNK         0.0269 
     63 CB        -78.0076   27.6330  -78.8616 C.3       2 UNK        -0.1926 
     64 N         -79.0757   27.6801  -76.6541 N.am      2 UNK        -0.4687 
     65 C         -79.3768   27.3650  -75.3868 C.2       1 UNK         0.5165 
     66 O         -78.9073   26.3882  -74.8013 O.2       1 UNK        -0.5079 
     67 H67       -84.4971   26.3464  -75.2105 H         1 UNK         0.0900 
     68 H68       -83.4346   24.9496  -75.0141 H         1 UNK         0.0900 
     69 H69       -83.6603   26.0816  -73.6790 H         1 UNK         0.0900 
     70 H70       -81.8601   27.3879  -73.4114 H         1 UNK         0.2959 
     71 H71       -80.7259   29.0224  -75.3934 H         1 UNK         0.1079 
     72 H72       -80.4624   29.8527  -73.2350 H         1 UNK         0.0837 
     73 H73       -78.8494   29.3281  -73.6125 H         1 UNK         0.0837 
     74 H74       -79.3858   28.9128  -69.7587 H         1 UNK         0.0685 
     75 H75       -79.1158   30.0803  -71.0262 H         1 UNK         0.0685 
     76 H76       -77.4898   26.7701  -71.4703 H         1 UNK         0.1434 
     77 H77       -73.6723   28.0695  -70.0513 H         1 UNK         0.1329 
     78 H78       -77.0769   30.6482  -69.6840 H         1 UNK         0.1335 
     79 H79       -74.3350   30.1268  -68.0067 H         1 UNK         0.0680 
     80 H80       -74.9632   31.4550  -68.9462 H         1 UNK         0.0680 
     81 H81       -73.6665   32.8883  -70.4290 H         1 UNK         0.1032 
     82 H82       -72.1075   32.5800  -71.1325 H         1 UNK         0.1032 
     83 H83       -74.7550   31.3263  -71.9722 H         1 UNK         0.0461 
     84 H84       -73.4526   31.7980  -74.9065 H         1 UNK         0.3453 
     85 H85       -73.9639   33.4496  -75.1444 H         1 UNK         0.3453 
     86 H86       -73.7558   29.6803  -72.9765 H         1 UNK         0.2984 
     87 H87       -70.7703   29.2469  -74.7720 H         1 UNK         0.0554 
     88 H88       -70.1608   28.2850  -72.5570 H         1 UNK         0.0847 
     89 H89       -70.8011   27.0317  -73.6085 H         1 UNK         0.0847 
     90 H90       -71.8034   27.7068  -72.3236 H         1 UNK         0.0847 
     91 H91       -73.1007   27.6331  -74.5006 H         1 UNK         0.3141 
     92 H92       -75.1079   28.0485  -75.3979 H         1 UNK         0.0743 
     93 H93       -75.4452   30.3418  -77.3860 H         1 UNK         0.0784 
     94 H94       -76.7193   29.3804  -76.6339 H         1 UNK         0.0784 
     95 H95       -75.7514   30.4639  -75.6605 H         1 UNK         0.0784 
     96 H96       -75.0073   28.1246  -78.2521 H         1 UNK         0.3213 
     97 H97       -74.9590   26.2307  -79.3226 H         1 UNK         0.0855 
     98 H98       -72.1277   25.1618  -78.8762 H         1 UNK         0.0814 
     99 H99       -72.6100   26.5158  -79.8780 H         1 UNK         0.0814 
    100 H100      -73.0785   24.8854  -80.3374 H         1 UNK         0.0814 
    101 H101      -75.9072   24.5022  -78.2591 H         1 UNK         0.3105 
    102 H102      -76.1849   22.2192  -77.9789 H         1 UNK         0.0547 
    103 H103      -75.5844   20.2830  -76.5147 H         1 UNK         0.0837 
    104 H104      -73.9743   20.9576  -76.2697 H         1 UNK         0.0837 
    105 H105      -74.4818   20.4591  -77.8711 H         1 UNK         0.0837 
    106 H106      -76.9380   23.3231  -76.2168 H         1 UNK         0.3020 
    107 H107      -76.0399   23.6657  -72.8874 H         1 UNK         0.1245 
    108 H108      -76.6113   26.2014  -73.4729 H         1 UNK         0.0781 
    109 H109      -75.6988   25.9190  -74.9117 H         1 UNK         0.0781 
    110 H110      -74.0741   25.7273  -70.5663 H         1 UNK         0.0836 
    111 H111      -75.6367   25.1580  -71.0721 H         1 UNK         0.0836 
    112 H112      -78.1533   24.8125  -74.4319 H         1 UNK         0.3022 
    113 H113      -80.3873   22.0467  -74.0314 H         1 UNK         0.0747 
    114 H114      -81.7193   23.9379  -73.1275 H         1 UNK         0.0793 
    115 H115      -80.4862   23.4525  -71.9762 H         1 UNK         0.0793 
    116 H116      -80.2622   24.9101  -72.9315 H         1 UNK         0.0793 
    117 H117      -80.2226   24.6665  -75.3911 H         1 UNK         0.3047 
    118 H118      -79.8682   23.2789  -78.6022 H         1 UNK         0.0822 
    119 H119      -82.0396   24.3897  -79.1349 H         1 UNK         0.0807 
    120 H120      -82.5050   24.3228  -77.4359 H         1 UNK         0.0807 
    121 H121      -82.2920   22.8387  -78.3509 H         1 UNK         0.0807 
    122 H122      -80.5556   25.8985  -77.5224 H         1 UNK         0.2946 
    123 H123      -77.1961   26.8928  -77.0086 H         1 UNK         0.1144 
    124 H124      -77.6141   28.6419  -78.7413 H         1 UNK         0.0793 
    125 H125      -78.9602   27.7084  -79.3876 H         1 UNK         0.0793 
    126 H126      -77.3210   27.0940  -79.5157 H         1 UNK         0.0793 
    127 H127      -79.5411   28.4672  -77.0835 H         1 UNK         0.2896 
@<TRIPOS>BOND
     1    1    2 1    
     2    1   67 1    
     3    1   68 1    
     4    1   69 1    
     5    2    3 2    
     6    2    4 am   BACKBONE|DICT|INTERRES
     7    4    5 1    
     8    4   70 1    
     9    5    6 1    
    10    5   65 1    
    11    5   71 1    
    12    6    7 1    
    13    6   72 1    
    14    6   73 1    
    15    7    8 1    
    16    8    9 1    
    17    8   74 1    
    18    8   75 1    
    19    9   10 ar   
    20    9   14 ar   
    21   10   11 ar   
    22   10   76 1    
    23   11   12 ar   
    24   11   48 1    
    25   12   13 ar   
    26   12   77 1    
    27   13   14 ar   
    28   13   15 1    
    29   14   78 1    
    30   15   16 1    
    31   15   79 1    
    32   15   80 1    
    33   16   17 1    
    34   17   18 1    
    35   17   81 1    
    36   17   82 1    
    37   18   19 1    
    38   18   22 1    
    39   18   83 1    
    40   19   20 am   BACKBONE|DICT|INTERRES
    41   19   21 2    
    42   20   84 1    
    43   20   85 1    
    44   22   23 am   BACKBONE|DICT|INTERRES
    45   22   86 1    
    46   23   24 2    
    47   23   25 1    
    48   25   26 1    
    49   25   27 1    
    50   25   87 1    
    51   26   88 1    
    52   26   89 1    
    53   26   90 1    
    54   27   28 am   BACKBONE|DICT|INTERRES
    55   27   91 1    
    56   28   29 2    
    57   28   30 1    
    58   30   31 1    
    59   30   32 1    
    60   30   92 1    
    61   31   93 1    
    62   31   94 1    
    63   31   95 1    
    64   32   33 am   BACKBONE|DICT|INTERRES
    65   32   96 1    
    66   33   34 2    
    67   33   35 1    
    68   35   36 1    
    69   35   37 1    
    70   35   97 1    
    71   36   98 1    
    72   36   99 1    
    73   36  100 1    
    74   37   38 am   BACKBONE|DICT|INTERRES
    75   37  101 1    
    76   38   39 2    
    77   38   40 1    
    78   40   41 1    
    79   40   42 1    
    80   40  102 1    
    81   41  103 1    
    82   41  104 1    
    83   41  105 1    
    84   42   43 am   BACKBONE|DICT|INTERRES
    85   42  106 1    
    86   43   44 2    
    87   43   45 1    
    88   45   46 1    
    89   45   49 1    
    90   45  107 1    
    91   46   47 1    
    92   46  108 1    
    93   46  109 1    
    94   47   48 1    
    95   48  110 1    
    96   48  111 1    
    97   49   50 am   BACKBONE|DICT|INTERRES
    98   49  112 1    
    99   50   51 2    
   100   50   52 1    
   101   52   53 1    
   102   52   54 1    
   103   52  113 1    
   104   53  114 1    
   105   53  115 1    
   106   53  116 1    
   107   54   55 am   BACKBONE|DICT|INTERRES
   108   54  117 1    
   109   55   56 2    
   110   55   57 1    
   111   57   58 1    
   112   57   59 1    
   113   57  118 1    
   114   58  119 1    
   115   58  120 1    
   116   58  121 1    
   117   59   60 am   BACKBONE|DICT|INTERRES
   118   59  122 1    
   119   60   61 2    
   120   60   62 1    
   121   62   63 1    
   122   62   64 1    
   123   62  123 1    
   124   63  124 1    
   125   63  125 1    
   126   63  126 1    
   127   64   65 am   BACKBONE|DICT|INTERRES
   128   64  127 1    
   129   65   66 2    
@<TRIPOS>SUBSTRUCTURE
     1 UNK         1 GROUP             0       ****    0 ROOT    
