@<TRIPOS>MOLECULE
3R135
127   129    1
SMALL
USER_CHARGES


@<TRIPOS>ATOM
      1 CA        -83.0876   28.2626  -70.5910 C.3       0 UNK        -0.1998 
      2 C         -82.4678   27.7515  -71.8824 C.2       0 UNK         0.4909 
      3 O         -81.4084   27.1303  -71.8385 O.2       0 UNK        -0.5240 
      4 N         -83.1324   28.0005  -73.0196 N.am      1 UNK        -0.4739 
      5 CA        -82.7639   27.6849  -74.4137 C.3       1 UNK         0.0864 
      6 C6        -81.4632   28.3624  -74.9366 C.3       11 UNK        -0.0881 
      7 S7        -81.2027   30.0946  -74.4143 S.3       11 UNK        -0.2682 
      8 C8        -79.3987   30.2680  -74.6502 C.3       11 UNK         0.0289 
      9 C9        -78.5772   29.9918  -73.3916 C.ar      11 UNK        -0.0687 
     10 C10       -78.6889   28.7809  -72.7007 C.ar      11 UNK        -0.0823 
     11 C11       -77.9148   28.5188  -71.5690 C.ar      11 UNK        -0.0830 
     12 C12       -77.0072   29.4812  -71.1238 C.ar      11 UNK        -0.1021 
     13 C13       -76.8642   30.6887  -71.8133 C.ar      11 UNK        -0.0753 
     14 C14       -77.6564   30.9421  -72.9380 C.ar      11 UNK        -0.0933 
     15 C15       -75.8386   31.7127  -71.3550 C.3       11 UNK         0.0166 
     16 S16       -74.2997   31.5829  -72.3169 S.3       11 UNK        -0.2615 
     17 C17       -73.6708   29.9584  -71.7672 C.3       11 UNK        -0.0865 
     18 CA        -72.3146   29.6031  -72.4281 C.3       10 UNK         0.0862 
     19 C         -71.6265   28.3731  -71.7656 C.2       10 UNK         0.5551 
     20 N         -70.9060   27.5373  -72.5046 N.am      10 UNK        -0.7319 
     21 O         -71.7293   28.1766  -70.5573 O.2       10 UNK        -0.5018 
     22 N         -72.4648   29.4417  -73.8816 N.am      10 UNK        -0.4509 
     23 C         -71.7453   30.0770  -74.8115 C.2       10 UNK         0.4899 
     24 O         -70.9072   30.9463  -74.5640 O.2       10 UNK        -0.4839 
     25 CA        -71.9929   29.6309  -76.2655 C.3       9 UNK         0.0222 
     26 CB        -70.9802   30.2327  -77.2622 C.3       9 UNK        -0.1966 
     27 N         -72.0482   28.1703  -76.4117 N.am      9 UNK        -0.4218 
     28 C         -71.1072   27.2786  -76.0563 C.2       9 UNK         0.5020 
     29 O         -70.0468   27.5893  -75.5115 O.2       9 UNK        -0.5274 
     30 CA        -71.3851   25.7821  -76.3055 C.3       8 UNK         0.0270 
     31 CB        -71.4075   25.0096  -74.9761 C.3       8 UNK        -0.1976 
     32 N         -72.6289   25.5189  -77.0324 N.am      8 UNK        -0.4313 
     33 C         -72.8117   25.7448  -78.3402 C.2       8 UNK         0.5041 
     34 O         -71.9223   26.1288  -79.1005 O.2       8 UNK        -0.5577 
     35 CA        -74.2364   25.5537  -78.8825 C.3       7 UNK         0.0284 
     36 CB        -74.4557   24.0930  -79.3063 C.3       7 UNK        -0.1958 
     37 N         -75.2763   25.9616  -77.9296 N.am      7 UNK        -0.4454 
     38 C         -75.4655   27.2187  -77.4976 C.2       7 UNK         0.5089 
     39 O         -74.7728   28.1721  -77.8529 O.2       7 UNK        -0.5125 
     40 CA        -76.5828   27.4470  -76.4642 C.3       6 UNK         0.0408 
     41 CB        -77.9707   27.2833  -77.1042 C.3       6 UNK        -0.1791 
     42 N         -76.4542   26.5522  -75.3145 N.am      6 UNK        -0.4762 
     43 C         -75.4438   26.5891  -74.4309 C.2       6 UNK         0.5007 
     44 O         -74.5556   27.4448  -74.4366 O.2       6 UNK        -0.5032 
     45 CA        -75.3631   25.4389  -73.4064 C.3       5 UNK         0.0783 
     46 C46       -75.9129   25.8274  -72.0111 C.3       11 UNK        -0.0857 
     47 S47       -77.7319   25.7565  -71.8758 S.3       11 UNK        -0.2512 
     48 C48       -78.0803   27.2020  -70.8227 C.3       11 UNK         0.0225 
     49 N         -75.9343   24.1849  -73.9122 N.am      5 UNK        -0.4615 
     50 C         -75.3933   23.4523  -74.8930 C.2       4 UNK         0.5053 
     51 O         -74.3646   23.7663  -75.4915 O.2       4 UNK        -0.5105 
     52 CA        -76.1391   22.1673  -75.2856 C.3       4 UNK         0.0263 
     53 CB        -76.1506   21.1533  -74.1289 C.3       4 UNK        -0.1981 
     54 N         -77.5088   22.4054  -75.7503 N.am      4 UNK        -0.4224 
     55 C         -77.8355   23.1415  -76.8223 C.2       3 UNK         0.4895 
     56 O         -77.0249   23.7751  -77.4945 O.2       3 UNK        -0.5091 
     57 CA        -79.3170   23.1792  -77.2291 C.3       3 UNK         0.0250 
     58 CB        -79.6420   22.0099  -78.1726 C.3       3 UNK        -0.1996 
     59 N         -80.2597   23.1801  -76.1074 N.am      3 UNK        -0.4254 
     60 C         -80.3445   24.1569  -75.1959 C.2       2 UNK         0.5004 
     61 O         -79.5508   25.0989  -75.1226 O.2       2 UNK        -0.5226 
     62 CA        -81.5114   24.0625  -74.1983 C.3       2 UNK         0.0269 
     63 CB        -81.0526   23.3913  -72.8942 C.3       2 UNK        -0.1926 
     64 N         -82.0123   25.4010  -73.8952 N.am      2 UNK        -0.4687 
     65 C         -82.7052   26.1753  -74.7382 C.2       1 UNK         0.5165 
     66 O         -83.2424   25.7521  -75.7632 O.2       1 UNK        -0.5079 
     67 H67       -83.2902   27.4303  -69.9175 H         1 UNK         0.0900 
     68 H68       -82.3992   28.9447  -70.0927 H         1 UNK         0.0900 
     69 H69       -84.0229   28.7935  -70.7673 H         1 UNK         0.0900 
     70 H70       -84.0101   28.4951  -72.9415 H         1 UNK         0.2959 
     71 H71       -83.5871   28.0865  -75.0072 H         1 UNK         0.1079 
     72 H72       -80.5909   27.7700  -74.6687 H         1 UNK         0.0837 
     73 H73       -81.4712   28.3555  -76.0283 H         1 UNK         0.0837 
     74 H74       -79.0610   29.6123  -75.4524 H         1 UNK         0.0685 
     75 H75       -79.2122   31.2843  -75.0004 H         1 UNK         0.0685 
     76 H76       -79.3750   28.0203  -73.0291 H         1 UNK         0.1434 
     77 H77       -76.4001   29.2864  -70.2502 H         1 UNK         0.1329 
     78 H78       -77.5373   31.8758  -73.4706 H         1 UNK         0.1335 
     79 H79       -76.2457   32.7182  -71.4721 H         1 UNK         0.0680 
     80 H80       -75.6182   31.5935  -70.2930 H         1 UNK         0.0680 
     81 H81       -74.4056   29.1863  -71.9992 H         1 UNK         0.1032 
     82 H82       -73.5817   29.9889  -70.6798 H         1 UNK         0.1032 
     83 H83       -71.6357   30.4321  -72.2218 H         1 UNK         0.0461 
     84 H84       -70.7505   27.7166  -73.4883 H         1 UNK         0.3453 
     85 H85       -70.4566   26.7542  -72.0583 H         1 UNK         0.3453 
     86 H86       -73.1326   28.7323  -74.1745 H         1 UNK         0.2984 
     87 H87       -72.9830   30.0020  -76.5341 H         1 UNK         0.0554 
     88 H88       -69.9582   29.9284  -77.0333 H         1 UNK         0.0847 
     89 H89       -71.0086   31.3228  -77.2391 H         1 UNK         0.0847 
     90 H90       -71.2006   29.9253  -78.2844 H         1 UNK         0.0847 
     91 H91       -72.9048   27.8190  -76.8243 H         1 UNK         0.3141 
     92 H92       -70.5560   25.3987  -76.9038 H         1 UNK         0.0743 
     93 H93       -70.4572   25.1060  -74.4493 H         1 UNK         0.0784 
     94 H94       -72.1870   25.3810  -74.3115 H         1 UNK         0.0784 
     95 H95       -71.5794   23.9451  -75.1361 H         1 UNK         0.0784 
     96 H96       -73.3950   25.1169  -76.4965 H         1 UNK         0.3213 
     97 H97       -74.3367   26.1836  -79.7690 H         1 UNK         0.0855 
     98 H98       -74.4046   23.4148  -78.4532 H         1 UNK         0.0814 
     99 H99       -73.6984   23.7749  -80.0241 H         1 UNK         0.0814 
    100 H100      -75.4279   23.9600  -79.7812 H         1 UNK         0.0814 
    101 H101      -75.8993   25.2237  -77.6033 H         1 UNK         0.3105 
    102 H102      -76.5006   28.4722  -76.0966 H         1 UNK         0.0547 
    103 H103      -78.1146   26.2859  -77.5189 H         1 UNK         0.0837 
    104 H104      -78.1121   27.9978  -77.9158 H         1 UNK         0.0837 
    105 H105      -78.7650   27.4521  -76.3784 H         1 UNK         0.0837 
    106 H106      -77.1520   25.8249  -75.2203 H         1 UNK         0.3020 
    107 H107      -74.2950   25.2578  -73.2696 H         1 UNK         0.1245 
    108 H108      -75.5526   26.8158  -71.7190 H         1 UNK         0.0781 
    109 H109      -75.5103   25.1412  -71.2646 H         1 UNK         0.0781 
    110 H110      -77.4423   27.1652  -69.9385 H         1 UNK         0.0836 
    111 H111      -79.1066   27.1319  -70.4606 H         1 UNK         0.0836 
    112 H112      -76.8031   23.8908  -73.4895 H         1 UNK         0.3022 
    113 H113      -75.5888   21.7193  -76.1159 H         1 UNK         0.0747 
    114 H114      -76.5523   20.1922  -74.4506 H         1 UNK         0.0793 
    115 H115      -75.1403   20.9712  -73.7595 H         1 UNK         0.0793 
    116 H116      -76.7490   21.4997  -73.2855 H         1 UNK         0.0793 
    117 H117      -78.2502   21.9336  -75.2540 H         1 UNK         0.3047 
    118 H118      -79.4721   24.1085  -77.7816 H         1 UNK         0.0822 
    119 H119      -80.6560   22.0861  -78.5657 H         1 UNK         0.0807 
    120 H120      -79.5463   21.0458  -77.6715 H         1 UNK         0.0807 
    121 H121      -78.9658   22.0003  -79.0289 H         1 UNK         0.0807 
    122 H122      -80.9396   22.4333  -76.0892 H         1 UNK         0.2946 
    123 H123      -82.3213   23.4771  -74.6394 H         1 UNK         0.1144 
    124 H124      -81.8727   23.3116  -72.1804 H         1 UNK         0.0793 
    125 H125      -80.2479   23.9519  -72.4161 H         1 UNK         0.0793 
    126 H126      -80.6837   22.3819  -73.0798 H         1 UNK         0.0793 
    127 H127      -81.5988   25.8710  -73.0909 H         1 UNK         0.2896 
@<TRIPOS>BOND
     1    1    2 1    
     2    1   67 1    
     3    1   68 1    
     4    1   69 1    
     5    2    3 2    
     6    2    4 am   BACKBONE|DICT|INTERRES
     7    4    5 1    
     8    4   70 1    
     9    5    6 1    
    10    5   65 1    
    11    5   71 1    
    12    6    7 1    
    13    6   72 1    
    14    6   73 1    
    15    7    8 1    
    16    8    9 1    
    17    8   74 1    
    18    8   75 1    
    19    9   10 ar   
    20    9   14 ar   
    21   10   11 ar   
    22   10   76 1    
    23   11   12 ar   
    24   11   48 1    
    25   12   13 ar   
    26   12   77 1    
    27   13   14 ar   
    28   13   15 1    
    29   14   78 1    
    30   15   16 1    
    31   15   79 1    
    32   15   80 1    
    33   16   17 1    
    34   17   18 1    
    35   17   81 1    
    36   17   82 1    
    37   18   19 1    
    38   18   22 1    
    39   18   83 1    
    40   19   20 am   BACKBONE|DICT|INTERRES
    41   19   21 2    
    42   20   84 1    
    43   20   85 1    
    44   22   23 am   BACKBONE|DICT|INTERRES
    45   22   86 1    
    46   23   24 2    
    47   23   25 1    
    48   25   26 1    
    49   25   27 1    
    50   25   87 1    
    51   26   88 1    
    52   26   89 1    
    53   26   90 1    
    54   27   28 am   BACKBONE|DICT|INTERRES
    55   27   91 1    
    56   28   29 2    
    57   28   30 1    
    58   30   31 1    
    59   30   32 1    
    60   30   92 1    
    61   31   93 1    
    62   31   94 1    
    63   31   95 1    
    64   32   33 am   BACKBONE|DICT|INTERRES
    65   32   96 1    
    66   33   34 2    
    67   33   35 1    
    68   35   36 1    
    69   35   37 1    
    70   35   97 1    
    71   36   98 1    
    72   36   99 1    
    73   36  100 1    
    74   37   38 am   BACKBONE|DICT|INTERRES
    75   37  101 1    
    76   38   39 2    
    77   38   40 1    
    78   40   41 1    
    79   40   42 1    
    80   40  102 1    
    81   41  103 1    
    82   41  104 1    
    83   41  105 1    
    84   42   43 am   BACKBONE|DICT|INTERRES
    85   42  106 1    
    86   43   44 2    
    87   43   45 1    
    88   45   46 1    
    89   45   49 1    
    90   45  107 1    
    91   46   47 1    
    92   46  108 1    
    93   46  109 1    
    94   47   48 1    
    95   48  110 1    
    96   48  111 1    
    97   49   50 am   BACKBONE|DICT|INTERRES
    98   49  112 1    
    99   50   51 2    
   100   50   52 1    
   101   52   53 1    
   102   52   54 1    
   103   52  113 1    
   104   53  114 1    
   105   53  115 1    
   106   53  116 1    
   107   54   55 am   BACKBONE|DICT|INTERRES
   108   54  117 1    
   109   55   56 2    
   110   55   57 1    
   111   57   58 1    
   112   57   59 1    
   113   57  118 1    
   114   58  119 1    
   115   58  120 1    
   116   58  121 1    
   117   59   60 am   BACKBONE|DICT|INTERRES
   118   59  122 1    
   119   60   61 2    
   120   60   62 1    
   121   62   63 1    
   122   62   64 1    
   123   62  123 1    
   124   63  124 1    
   125   63  125 1    
   126   63  126 1    
   127   64   65 am   BACKBONE|DICT|INTERRES
   128   64  127 1    
   129   65   66 2    
@<TRIPOS>SUBSTRUCTURE
     1 UNK         1 GROUP             0       ****    0 ROOT    
