@<TRIPOS>MOLECULE
3R135
127   129    1
SMALL
USER_CHARGES


@<TRIPOS>ATOM
      1 CA        -81.5045   26.0652  -69.6982 C.3       0 UNK        -0.1998 
      2 C         -82.2549   26.5666  -70.9228 C.2       0 UNK         0.4909 
      3 O         -83.4722   26.4040  -71.0073 O.2       0 UNK        -0.5240 
      4 N         -81.5342   27.1688  -71.8766 N.am      1 UNK        -0.4739 
      5 CA        -82.0790   27.7021  -73.1331 C.3       1 UNK         0.0864 
      6 C6        -81.1770   28.8287  -73.6954 C.3       11 UNK        -0.0881 
      7 S7        -81.2903   30.3826  -72.7368 S.3       11 UNK        -0.2682 
      8 C8        -80.0745   30.1836  -71.3866 C.3       11 UNK         0.0289 
      9 C9        -78.7208   29.6655  -71.8544 C.ar      11 UNK        -0.0687 
     10 C10       -78.1802   28.5125  -71.2794 C.ar      11 UNK        -0.0823 
     11 C11       -76.9701   27.9899  -71.7418 C.ar      11 UNK        -0.0830 
     12 C12       -76.2870   28.6493  -72.7671 C.ar      11 UNK        -0.1021 
     13 C13       -76.7964   29.8248  -73.3346 C.ar      11 UNK        -0.0753 
     14 C14       -78.0152   30.3244  -72.8665 C.ar      11 UNK        -0.0933 
     15 C15       -76.0961   30.5654  -74.4768 C.3       11 UNK         0.0166 
     16 S16       -74.3453   30.1229  -74.7515 S.3       11 UNK        -0.2615 
     17 C17       -73.5411   30.8588  -73.2852 C.3       11 UNK        -0.0865 
     18 CA        -72.1652   31.4820  -73.6347 C.3       10 UNK         0.0862 
     19 C         -71.5728   32.2417  -72.4179 C.2       10 UNK         0.5551 
     20 N         -71.8840   33.5227  -72.2773 N.am      10 UNK        -0.7319 
     21 O         -70.8724   31.6727  -71.5823 O.2       10 UNK        -0.5018 
     22 N         -71.2435   30.4624  -74.1516 N.am      10 UNK        -0.4509 
     23 C         -70.1294   30.7006  -74.8530 C.2       10 UNK         0.4899 
     24 O         -69.7496   31.8299  -75.1654 O.2       10 UNK        -0.4839 
     25 CA        -69.2867   29.4815  -75.2892 C.3       9 UNK         0.0222 
     26 CB        -67.9231   29.4894  -74.5770 C.3       9 UNK        -0.1966 
     27 N         -69.9318   28.1807  -75.0631 N.am      9 UNK        -0.4218 
     28 C         -70.9960   27.7152  -75.7327 C.2       9 UNK         0.5020 
     29 O         -71.5387   28.3280  -76.6544 O.2       9 UNK        -0.5274 
     30 CA        -71.5530   26.3627  -75.2424 C.3       8 UNK         0.0270 
     31 CB        -72.0629   26.4783  -73.7930 C.3       8 UNK        -0.1976 
     32 N         -72.6433   25.8567  -76.0813 N.am      8 UNK        -0.4313 
     33 C         -72.5024   25.3775  -77.3268 C.2       8 UNK         0.5041 
     34 O         -71.4077   25.2212  -77.8719 O.2       8 UNK        -0.5577 
     35 CA        -73.7772   24.9791  -78.1023 C.3       7 UNK         0.0284 
     36 CB        -73.8783   23.4491  -78.2219 C.3       7 UNK        -0.1958 
     37 N         -75.0172   25.4851  -77.5114 N.am      7 UNK        -0.4454 
     38 C         -75.4014   26.7677  -77.4769 C.2       7 UNK         0.5089 
     39 O         -74.8130   27.6708  -78.0707 O.2       7 UNK        -0.5125 
     40 CA        -76.6394   27.1100  -76.6231 C.3       6 UNK         0.0408 
     41 CB        -77.8447   27.4324  -77.5191 C.3       6 UNK        -0.1791 
     42 N         -77.0316   26.0773  -75.6571 N.am      6 UNK        -0.4762 
     43 C         -76.2853   25.6255  -74.6375 C.2       6 UNK         0.5007 
     44 O         -75.1273   25.9807  -74.4262 O.2       6 UNK        -0.5032 
     45 CA        -76.9332   24.5495  -73.7494 C.3       5 UNK         0.0783 
     46 C46       -78.0488   25.1477  -72.8451 C.3       11 UNK        -0.0857 
     47 S47       -77.5554   25.3185  -71.0992 S.3       11 UNK        -0.2512 
     48 C48       -76.3855   26.7199  -71.1343 C.3       11 UNK         0.0225 
     49 N         -77.4338   23.4685  -74.5996 N.am      5 UNK        -0.4615 
     50 C         -76.6719   22.5114  -75.1466 C.2       4 UNK         0.5053 
     51 O         -75.4731   22.3737  -74.9067 O.2       4 UNK        -0.5105 
     52 CA        -77.3530   21.5488  -76.1375 C.3       4 UNK         0.0263 
     53 CB        -77.7612   20.2491  -75.4258 C.3       4 UNK        -0.1981 
     54 N         -78.5291   22.1288  -76.7920 N.am      4 UNK        -0.4224 
     55 C         -78.4896   23.1193  -77.6953 C.2       3 UNK         0.4895 
     56 O         -77.4484   23.6074  -78.1323 O.2       3 UNK        -0.5091 
     57 CA        -79.8445   23.6988  -78.1426 C.3       3 UNK         0.0250 
     58 CB        -80.3972   22.9140  -79.3428 C.3       3 UNK        -0.1996 
     59 N         -80.8504   23.7367  -77.0718 N.am      3 UNK        -0.4254 
     60 C         -80.7112   24.4140  -75.9236 C.2       2 UNK         0.5004 
     61 O         -79.7078   25.0728  -75.6387 O.2       2 UNK        -0.5226 
     62 CA        -81.8375   24.2627  -74.8900 C.3       2 UNK         0.0269 
     63 CB        -81.6698   22.9481  -74.1091 C.3       2 UNK        -0.1926 
     64 N         -81.8262   25.3761  -73.9402 N.am      2 UNK        -0.4687 
     65 C         -82.3048   26.6015  -74.1963 C.2       1 UNK         0.5165 
     66 O         -82.9085   26.8834  -75.2332 O.2       1 UNK        -0.5079 
     67 H67       -81.6973   25.0032  -69.5488 H         1 UNK         0.0900 
     68 H68       -81.8375   26.6005  -68.8095 H         1 UNK         0.0900 
     69 H69       -80.4274   26.2011  -69.7936 H         1 UNK         0.0900 
     70 H70       -80.5378   27.2758  -71.7580 H         1 UNK         0.2959 
     71 H71       -83.0650   28.1273  -72.9313 H         1 UNK         0.1079 
     72 H72       -80.1419   28.4958  -73.7842 H         1 UNK         0.0837 
     73 H73       -81.4809   29.0894  -74.7114 H         1 UNK         0.0837 
     74 H74       -79.9320   31.1495  -70.9004 H         1 UNK         0.0685 
     75 H75       -80.5029   29.5249  -70.6300 H         1 UNK         0.0685 
     76 H76       -78.7049   28.0084  -70.4798 H         1 UNK         0.1434 
     77 H77       -75.3562   28.2332  -73.1233 H         1 UNK         0.1329 
     78 H78       -78.4329   31.2190  -73.3083 H         1 UNK         0.1335 
     79 H79       -76.6440   30.3630  -75.3977 H         1 UNK         0.0680 
     80 H80       -76.1619   31.6423  -74.3138 H         1 UNK         0.0680 
     81 H81       -73.4370   30.0895  -72.5178 H         1 UNK         0.1032 
     82 H82       -74.2028   31.6178  -72.8633 H         1 UNK         0.1032 
     83 H83       -72.3232   32.2104  -74.4332 H         1 UNK         0.0461 
     84 H84       -72.4635   33.9963  -72.9532 H         1 UNK         0.3453 
     85 H85       -71.5221   34.0311  -71.4855 H         1 UNK         0.3453 
     86 H86       -71.4788   29.5064  -73.9387 H         1 UNK         0.2984 
     87 H87       -69.1091   29.5840  -76.3617 H         1 UNK         0.0554 
     88 H88       -67.2837   28.6800  -74.9300 H         1 UNK         0.0847 
     89 H89       -68.0313   29.3882  -73.4963 H         1 UNK         0.0847 
     90 H90       -67.3894   30.4226  -74.7631 H         1 UNK         0.0847 
     91 H91       -69.5462   27.6151  -74.3200 H         1 UNK         0.3141 
     92 H92       -70.7401   25.6342  -75.2701 H         1 UNK         0.0743 
     93 H93       -72.8336   27.2451  -73.6991 H         1 UNK         0.0784 
     94 H94       -72.4897   25.5363  -73.4474 H         1 UNK         0.0784 
     95 H95       -71.2604   26.7346  -73.1009 H         1 UNK         0.0784 
     96 H96       -73.5795   25.9539  -75.6993 H         1 UNK         0.3213 
     97 H97       -73.6883   25.3981  -79.1067 H         1 UNK         0.0855 
     98 H98       -73.9758   22.9747  -77.2446 H         1 UNK         0.0814 
     99 H99       -72.9895   23.0340  -78.6989 H         1 UNK         0.0814 
    100 H100      -74.7366   23.1533  -78.8258 H         1 UNK         0.0814 
    101 H101      -75.6146   24.8087  -77.0558 H         1 UNK         0.3105 
    102 H102      -76.3915   28.0042  -76.0494 H         1 UNK         0.0547 
    103 H103      -77.6151   28.2498  -78.2040 H         1 UNK         0.0837 
    104 H104      -78.1337   26.5719  -78.1226 H         1 UNK         0.0837 
    105 H105      -78.7099   27.7362  -76.9293 H         1 UNK         0.0837 
    106 H106      -77.9815   25.7189  -75.7436 H         1 UNK         0.3020 
    107 H107      -76.1444   24.1343  -73.1172 H         1 UNK         0.1245 
    108 H108      -78.9188   24.4901  -72.8391 H         1 UNK         0.0781 
    109 H109      -78.4303   26.1027  -73.2132 H         1 UNK         0.0781 
    110 H110      -75.4863   26.4108  -71.6695 H         1 UNK         0.0836 
    111 H111      -76.0695   26.9359  -70.1129 H         1 UNK         0.0836 
    112 H112      -78.3914   23.5633  -74.9097 H         1 UNK         0.3022 
    113 H113      -76.6214   21.3027  -76.9104 H         1 UNK         0.0747 
    114 H114      -78.1770   19.5256  -76.1274 H         1 UNK         0.0793 
    115 H115      -76.8995   19.7778  -74.9507 H         1 UNK         0.0793 
    116 H116      -78.5039   20.4294  -74.6474 H         1 UNK         0.0793 
    117 H117      -79.4312   21.7797  -76.5035 H         1 UNK         0.3047 
    118 H118      -79.6686   24.7277  -78.4622 H         1 UNK         0.0822 
    119 H119      -81.3060   23.3726  -79.7329 H         1 UNK         0.0807 
    120 H120      -80.6272   21.8803  -79.0812 H         1 UNK         0.0807 
    121 H121      -79.6736   22.8901  -80.1591 H         1 UNK         0.0807 
    122 H122      -81.6971   23.2082  -77.2288 H         1 UNK         0.2946 
    123 H123      -82.7967   24.2499  -75.4131 H         1 UNK         0.1144 
    124 H124      -80.7125   22.9015  -73.5885 H         1 UNK         0.0793 
    125 H125      -81.7219   22.0846  -74.7735 H         1 UNK         0.0793 
    126 H126      -82.4589   22.8271  -73.3665 H         1 UNK         0.0793 
    127 H127      -81.3303   25.2346  -73.0737 H         1 UNK         0.2896 
@<TRIPOS>BOND
     1    1    2 1    
     2    1   67 1    
     3    1   68 1    
     4    1   69 1    
     5    2    3 2    
     6    2    4 am   BACKBONE|DICT|INTERRES
     7    4    5 1    
     8    4   70 1    
     9    5    6 1    
    10    5   65 1    
    11    5   71 1    
    12    6    7 1    
    13    6   72 1    
    14    6   73 1    
    15    7    8 1    
    16    8    9 1    
    17    8   74 1    
    18    8   75 1    
    19    9   10 ar   
    20    9   14 ar   
    21   10   11 ar   
    22   10   76 1    
    23   11   12 ar   
    24   11   48 1    
    25   12   13 ar   
    26   12   77 1    
    27   13   14 ar   
    28   13   15 1    
    29   14   78 1    
    30   15   16 1    
    31   15   79 1    
    32   15   80 1    
    33   16   17 1    
    34   17   18 1    
    35   17   81 1    
    36   17   82 1    
    37   18   19 1    
    38   18   22 1    
    39   18   83 1    
    40   19   20 am   BACKBONE|DICT|INTERRES
    41   19   21 2    
    42   20   84 1    
    43   20   85 1    
    44   22   23 am   BACKBONE|DICT|INTERRES
    45   22   86 1    
    46   23   24 2    
    47   23   25 1    
    48   25   26 1    
    49   25   27 1    
    50   25   87 1    
    51   26   88 1    
    52   26   89 1    
    53   26   90 1    
    54   27   28 am   BACKBONE|DICT|INTERRES
    55   27   91 1    
    56   28   29 2    
    57   28   30 1    
    58   30   31 1    
    59   30   32 1    
    60   30   92 1    
    61   31   93 1    
    62   31   94 1    
    63   31   95 1    
    64   32   33 am   BACKBONE|DICT|INTERRES
    65   32   96 1    
    66   33   34 2    
    67   33   35 1    
    68   35   36 1    
    69   35   37 1    
    70   35   97 1    
    71   36   98 1    
    72   36   99 1    
    73   36  100 1    
    74   37   38 am   BACKBONE|DICT|INTERRES
    75   37  101 1    
    76   38   39 2    
    77   38   40 1    
    78   40   41 1    
    79   40   42 1    
    80   40  102 1    
    81   41  103 1    
    82   41  104 1    
    83   41  105 1    
    84   42   43 am   BACKBONE|DICT|INTERRES
    85   42  106 1    
    86   43   44 2    
    87   43   45 1    
    88   45   46 1    
    89   45   49 1    
    90   45  107 1    
    91   46   47 1    
    92   46  108 1    
    93   46  109 1    
    94   47   48 1    
    95   48  110 1    
    96   48  111 1    
    97   49   50 am   BACKBONE|DICT|INTERRES
    98   49  112 1    
    99   50   51 2    
   100   50   52 1    
   101   52   53 1    
   102   52   54 1    
   103   52  113 1    
   104   53  114 1    
   105   53  115 1    
   106   53  116 1    
   107   54   55 am   BACKBONE|DICT|INTERRES
   108   54  117 1    
   109   55   56 2    
   110   55   57 1    
   111   57   58 1    
   112   57   59 1    
   113   57  118 1    
   114   58  119 1    
   115   58  120 1    
   116   58  121 1    
   117   59   60 am   BACKBONE|DICT|INTERRES
   118   59  122 1    
   119   60   61 2    
   120   60   62 1    
   121   62   63 1    
   122   62   64 1    
   123   62  123 1    
   124   63  124 1    
   125   63  125 1    
   126   63  126 1    
   127   64   65 am   BACKBONE|DICT|INTERRES
   128   64  127 1    
   129   65   66 2    
@<TRIPOS>SUBSTRUCTURE
     1 UNK         1 GROUP             0       ****    0 ROOT    
