@<TRIPOS>MOLECULE
3R135
127   129    1
SMALL
USER_CHARGES


@<TRIPOS>ATOM
      1 CA        -86.0542   27.7901  -72.7522 C.3       0 UNK        -0.1998 
      2 C         -84.8979   28.5882  -73.3344 C.2       0 UNK         0.4909 
      3 O         -85.0390   29.1858  -74.4020 O.2       0 UNK        -0.5240 
      4 N         -83.7480   28.5964  -72.6495 N.am      1 UNK        -0.4739 
      5 CA        -82.5096   29.2899  -73.0301 C.3       1 UNK         0.0864 
      6 C6        -81.6518   29.6410  -71.7823 C.3       11 UNK        -0.0881 
      7 S7        -81.3409   28.2378  -70.6478 S.3       11 UNK        -0.2682 
      8 C8        -79.7502   28.7120  -69.8979 C.3       11 UNK         0.0289 
      9 C9        -78.5640   28.2323  -70.7229 C.ar      11 UNK        -0.0687 
     10 C10       -78.0319   26.9571  -70.5063 C.ar      11 UNK        -0.0823 
     11 C11       -76.9321   26.5139  -71.2463 C.ar      11 UNK        -0.0830 
     12 C12       -76.3741   27.3476  -72.2183 C.ar      11 UNK        -0.1021 
     13 C13       -76.8930   28.6258  -72.4434 C.ar      11 UNK        -0.0753 
     14 C14       -77.9844   29.0644  -71.6862 C.ar      11 UNK        -0.0933 
     15 C15       -76.2957   29.5242  -73.5180 C.3       11 UNK         0.0166 
     16 S16       -74.5287   29.8709  -73.2342 S.3       11 UNK        -0.2615 
     17 C17       -74.2402   31.1580  -74.4946 C.3       11 UNK        -0.0865 
     18 CA        -73.7047   30.5857  -75.8407 C.3       10 UNK         0.0862 
     19 C         -73.8101   31.6057  -77.0177 C.2       10 UNK         0.5551 
     20 N         -72.9385   31.5510  -78.0180 N.am      10 UNK        -0.7319 
     21 O         -74.7116   32.4403  -77.0474 O.2       10 UNK        -0.5018 
     22 N         -72.3872   29.9262  -75.7303 N.am      10 UNK        -0.4509 
     23 C         -71.2337   30.5234  -75.3950 C.2       10 UNK         0.4899 
     24 O         -71.1573   31.6976  -75.0289 O.2       10 UNK        -0.4839 
     25 CA        -69.9369   29.7003  -75.5540 C.3       9 UNK         0.0222 
     26 CB        -68.7486   30.3004  -74.7708 C.3       9 UNK        -0.1966 
     27 N         -70.0721   28.2679  -75.2659 N.am      9 UNK        -0.4218 
     28 C         -70.4006   27.6871  -74.1037 C.2       9 UNK         0.5020 
     29 O         -70.7124   28.3102  -73.0876 O.2       9 UNK        -0.5274 
     30 CA        -70.3476   26.1430  -74.0801 C.3       8 UNK         0.0270 
     31 CB        -70.7568   25.5573  -72.7153 C.3       8 UNK        -0.1976 
     32 N         -71.1802   25.5443  -75.1277 N.am      8 UNK        -0.4313 
     33 C         -70.8644   25.4789  -76.4316 C.2       8 UNK         0.5041 
     34 O         -69.7840   25.8646  -76.8809 O.2       8 UNK        -0.5577 
     35 CA        -71.9401   24.9646  -77.4115 C.3       7 UNK         0.0284 
     36 CB        -71.7413   23.4667  -77.6905 C.3       7 UNK        -0.1958 
     37 N         -73.3090   25.1878  -76.9415 N.am      7 UNK        -0.4454 
     38 C         -73.8291   26.3833  -76.6268 C.2       7 UNK         0.5089 
     39 O         -73.2738   27.4503  -76.8869 O.2       7 UNK        -0.5125 
     40 CA        -75.1466   26.3980  -75.8271 C.3       6 UNK         0.0408 
     41 CB        -76.2937   26.9558  -76.6819 C.3       6 UNK        -0.1791 
     42 N         -75.5337   25.0956  -75.2621 N.am      6 UNK        -0.4762 
     43 C         -74.8186   24.3894  -74.3664 C.2       6 UNK         0.5007 
     44 O         -73.7630   24.7998  -73.8846 O.2       6 UNK        -0.5032 
     45 CA        -75.3045   22.9706  -73.9844 C.3       5 UNK         0.0783 
     46 C46       -75.6873   22.8486  -72.4888 C.3       11 UNK        -0.0857 
     47 S47       -77.1255   23.8679  -72.0088 S.3       11 UNK        -0.2512 
     48 C48       -76.3268   25.1453  -70.9878 C.3       11 UNK         0.0225 
     49 N         -76.3639   22.4588  -74.8563 N.am      5 UNK        -0.4615 
     50 C         -76.2080   22.1066  -76.1392 C.2       4 UNK         0.5053 
     51 O         -75.1254   22.1371  -76.7252 O.2       4 UNK        -0.5105 
     52 CA        -77.4769   21.6859  -76.9058 C.3       4 UNK         0.0263 
     53 CB        -77.5831   20.1536  -76.9631 C.3       4 UNK        -0.1981 
     54 N         -78.7231   22.2389  -76.3553 N.am      4 UNK        -0.4224 
     55 C         -79.0077   23.5461  -76.2786 C.2       3 UNK         0.4895 
     56 O         -78.2397   24.4359  -76.6530 O.2       3 UNK        -0.5091 
     57 CA        -80.3470   23.9243  -75.6380 C.3       3 UNK         0.0250 
     58 CB        -80.2718   23.7991  -74.1031 C.3       3 UNK        -0.1996 
     59 N         -80.6552   25.3001  -76.0146 N.am      3 UNK        -0.4254 
     60 C         -81.8363   25.9084  -75.8816 C.2       2 UNK         0.5004 
     61 O         -82.8500   25.3622  -75.4386 O.2       2 UNK        -0.5226 
     62 CA        -81.9039   27.3781  -76.3250 C.3       2 UNK         0.0269 
     63 CB        -82.8037   27.5413  -77.5611 C.3       2 UNK        -0.1926 
     64 N         -82.4216   28.2056  -75.2369 N.am      2 UNK        -0.4687 
     65 C         -81.7308   28.5406  -74.1395 C.2       1 UNK         0.5165 
     66 O         -80.5349   28.2813  -74.0008 O.2       1 UNK        -0.5079 
     67 H67       -86.9133   28.4400  -72.5875 H         1 UNK         0.0900 
     68 H68       -85.7916   27.3274  -71.8010 H         1 UNK         0.0900 
     69 H69       -86.3501   27.0012  -73.4432 H         1 UNK         0.0900 
     70 H70       -83.6767   28.0613  -71.7947 H         1 UNK         0.2959 
     71 H71       -82.7933   30.2429  -73.4830 H         1 UNK         0.1079 
     72 H72       -80.7078   30.0948  -72.0854 H         1 UNK         0.0837 
     73 H73       -82.1653   30.4112  -71.2049 H         1 UNK         0.0837 
     74 H74       -79.6962   28.2796  -68.8976 H         1 UNK         0.0685 
     75 H75       -79.7111   29.7936  -69.7591 H         1 UNK         0.0685 
     76 H76       -78.4720   26.3108  -69.7590 H         1 UNK         0.1434 
     77 H77       -75.5245   27.0049  -72.7914 H         1 UNK         0.1329 
     78 H78       -78.3896   30.0523  -71.8532 H         1 UNK         0.1335 
     79 H79       -76.4197   29.0500  -74.4919 H         1 UNK         0.0680 
     80 H80       -76.8420   30.4675  -73.5625 H         1 UNK         0.0680 
     81 H81       -75.1753   31.6994  -74.6459 H         1 UNK         0.1032 
     82 H82       -73.5492   31.8953  -74.0854 H         1 UNK         0.1032 
     83 H83       -74.3920   29.7915  -76.1322 H         1 UNK         0.0461 
     84 H84       -73.0186   32.2052  -78.7804 H         1 UNK         0.3453 
     85 H85       -72.2108   30.8548  -78.0222 H         1 UNK         0.3453 
     86 H86       -72.3765   28.9613  -76.0475 H         1 UNK         0.2984 
     87 H87       -69.6843   29.7599  -76.6135 H         1 UNK         0.0554 
     88 H88       -67.8370   29.7236  -74.9265 H         1 UNK         0.0847 
     89 H89       -68.9469   30.3324  -73.6989 H         1 UNK         0.0847 
     90 H90       -68.5402   31.3216  -75.0926 H         1 UNK         0.0847 
     91 H91       -69.8556   27.6364  -76.0338 H         1 UNK         0.3141 
     92 H92       -69.3091   25.8569  -74.2599 H         1 UNK         0.0743 
     93 H93       -70.0930   25.9098  -71.9248 H         1 UNK         0.0784 
     94 H94       -71.7717   25.8468  -72.4400 H         1 UNK         0.0784 
     95 H95       -70.7077   24.4683  -72.7176 H         1 UNK         0.0784 
     96 H96       -72.1069   25.2469  -74.8327 H         1 UNK         0.3213 
     97 H97       -71.8187   25.5123  -78.3484 H         1 UNK         0.0855 
     98 H98       -71.8767   22.8666  -76.7897 H         1 UNK         0.0814 
     99 H99       -70.7365   23.2696  -78.0670 H         1 UNK         0.0814 
    100 H100      -72.4444   23.1055  -78.4414 H         1 UNK         0.0814 
    101 H101      -73.8533   24.3648  -76.7200 H         1 UNK         0.3105 
    102 H102      -74.9870   27.0820  -74.9932 H         1 UNK         0.0547 
    103 H103      -76.4995   26.3190  -77.5429 H         1 UNK         0.0837 
    104 H104      -77.2124   27.0463  -76.1018 H         1 UNK         0.0837 
    105 H105      -76.0525   27.9493  -77.0621 H         1 UNK         0.0837 
    106 H106      -76.3946   24.6952  -75.6203 H         1 UNK         0.3020 
    107 H107      -74.4374   22.3235  -74.1380 H         1 UNK         0.1245 
    108 H108      -74.8277   23.0791  -71.8573 H         1 UNK         0.0781 
    109 H109      -75.9309   21.8095  -72.2619 H         1 UNK         0.0781 
    110 H110      -75.2557   25.1883  -71.1911 H         1 UNK         0.0836 
    111 H111      -76.4249   24.8769  -69.9349 H         1 UNK         0.0836 
    112 H112      -77.2878   22.4201  -74.4518 H         1 UNK         0.3022 
    113 H113      -77.3732   22.0603  -77.9265 H         1 UNK         0.0747 
    114 H114      -78.4213   19.8358  -77.5836 H         1 UNK         0.0793 
    115 H115      -76.6810   19.7156  -77.3931 H         1 UNK         0.0793 
    116 H116      -77.7144   19.7200  -75.9708 H         1 UNK         0.0793 
    117 H117      -79.4031   21.5715  -76.0189 H         1 UNK         0.3047 
    118 H118      -81.1221   23.2630  -76.0310 H         1 UNK         0.0822 
    119 H119      -79.9687   22.7976  -73.7958 H         1 UNK         0.0807 
    120 H120      -81.2378   23.9961  -73.6384 H         1 UNK         0.0807 
    121 H121      -79.5542   24.5044  -73.6817 H         1 UNK         0.0807 
    122 H122      -79.8644   25.7937  -76.4119 H         1 UNK         0.2946 
    123 H123      -80.9002   27.7264  -76.5807 H         1 UNK         0.1144 
    124 H124      -82.4353   26.9401  -78.3934 H         1 UNK         0.0793 
    125 H125      -82.8317   28.5780  -77.8973 H         1 UNK         0.0793 
    126 H126      -83.8286   27.2267  -77.3592 H         1 UNK         0.0793 
    127 H127      -83.4106   28.4341  -75.2552 H         1 UNK         0.2896 
@<TRIPOS>BOND
     1    1    2 1    
     2    1   67 1    
     3    1   68 1    
     4    1   69 1    
     5    2    3 2    
     6    2    4 am   BACKBONE|DICT|INTERRES
     7    4    5 1    
     8    4   70 1    
     9    5    6 1    
    10    5   65 1    
    11    5   71 1    
    12    6    7 1    
    13    6   72 1    
    14    6   73 1    
    15    7    8 1    
    16    8    9 1    
    17    8   74 1    
    18    8   75 1    
    19    9   10 ar   
    20    9   14 ar   
    21   10   11 ar   
    22   10   76 1    
    23   11   12 ar   
    24   11   48 1    
    25   12   13 ar   
    26   12   77 1    
    27   13   14 ar   
    28   13   15 1    
    29   14   78 1    
    30   15   16 1    
    31   15   79 1    
    32   15   80 1    
    33   16   17 1    
    34   17   18 1    
    35   17   81 1    
    36   17   82 1    
    37   18   19 1    
    38   18   22 1    
    39   18   83 1    
    40   19   20 am   BACKBONE|DICT|INTERRES
    41   19   21 2    
    42   20   84 1    
    43   20   85 1    
    44   22   23 am   BACKBONE|DICT|INTERRES
    45   22   86 1    
    46   23   24 2    
    47   23   25 1    
    48   25   26 1    
    49   25   27 1    
    50   25   87 1    
    51   26   88 1    
    52   26   89 1    
    53   26   90 1    
    54   27   28 am   BACKBONE|DICT|INTERRES
    55   27   91 1    
    56   28   29 2    
    57   28   30 1    
    58   30   31 1    
    59   30   32 1    
    60   30   92 1    
    61   31   93 1    
    62   31   94 1    
    63   31   95 1    
    64   32   33 am   BACKBONE|DICT|INTERRES
    65   32   96 1    
    66   33   34 2    
    67   33   35 1    
    68   35   36 1    
    69   35   37 1    
    70   35   97 1    
    71   36   98 1    
    72   36   99 1    
    73   36  100 1    
    74   37   38 am   BACKBONE|DICT|INTERRES
    75   37  101 1    
    76   38   39 2    
    77   38   40 1    
    78   40   41 1    
    79   40   42 1    
    80   40  102 1    
    81   41  103 1    
    82   41  104 1    
    83   41  105 1    
    84   42   43 am   BACKBONE|DICT|INTERRES
    85   42  106 1    
    86   43   44 2    
    87   43   45 1    
    88   45   46 1    
    89   45   49 1    
    90   45  107 1    
    91   46   47 1    
    92   46  108 1    
    93   46  109 1    
    94   47   48 1    
    95   48  110 1    
    96   48  111 1    
    97   49   50 am   BACKBONE|DICT|INTERRES
    98   49  112 1    
    99   50   51 2    
   100   50   52 1    
   101   52   53 1    
   102   52   54 1    
   103   52  113 1    
   104   53  114 1    
   105   53  115 1    
   106   53  116 1    
   107   54   55 am   BACKBONE|DICT|INTERRES
   108   54  117 1    
   109   55   56 2    
   110   55   57 1    
   111   57   58 1    
   112   57   59 1    
   113   57  118 1    
   114   58  119 1    
   115   58  120 1    
   116   58  121 1    
   117   59   60 am   BACKBONE|DICT|INTERRES
   118   59  122 1    
   119   60   61 2    
   120   60   62 1    
   121   62   63 1    
   122   62   64 1    
   123   62  123 1    
   124   63  124 1    
   125   63  125 1    
   126   63  126 1    
   127   64   65 am   BACKBONE|DICT|INTERRES
   128   64  127 1    
   129   65   66 2    
@<TRIPOS>SUBSTRUCTURE
     1 UNK         1 GROUP             0       ****    0 ROOT    
