@<TRIPOS>MOLECULE
3R135
127   129    1
SMALL
USER_CHARGES


@<TRIPOS>ATOM
      1 CA        -82.4349   25.6053  -69.6036 C.3       0 UNK        -0.1998 
      2 C         -82.2105   26.0890  -71.0275 C.2       0 UNK         0.4909 
      3 O         -81.4219   25.4902  -71.7571 O.2       0 UNK        -0.5240 
      4 N         -82.9118   27.1583  -71.4333 N.am      1 UNK        -0.4739 
      5 CA        -82.8031   27.8383  -72.7386 C.3       1 UNK         0.0864 
      6 C6        -81.4374   28.5546  -72.9337 C.3       11 UNK        -0.0881 
      7 S7        -81.1888   29.8992  -71.7234 S.3       11 UNK        -0.2682 
      8 C8        -79.9833   29.1729  -70.5663 C.3       11 UNK         0.0289 
      9 C9        -78.6170   28.9632  -71.2040 C.ar      11 UNK        -0.0687 
     10 C10       -78.1109   27.6715  -71.3825 C.ar      11 UNK        -0.0823 
     11 C11       -76.8465   27.4773  -71.9479 C.ar      11 UNK        -0.0830 
     12 C12       -76.0938   28.5850  -72.3490 C.ar      11 UNK        -0.1021 
     13 C13       -76.5913   29.8804  -72.1781 C.ar      11 UNK        -0.0753 
     14 C14       -77.8492   30.0638  -71.5973 C.ar      11 UNK        -0.0933 
     15 C15       -75.7703   31.0773  -72.6287 C.3       11 UNK         0.0166 
     16 S16       -74.4486   31.4509  -71.4362 S.3       11 UNK        -0.2615 
     17 C17       -73.5032   32.7246  -72.3462 C.3       11 UNK        -0.0865 
     18 CA        -72.2165   32.1833  -73.0262 C.3       10 UNK         0.0862 
     19 C         -71.1028   31.8306  -71.9943 C.2       10 UNK         0.5551 
     20 N         -70.6559   30.5842  -71.8875 N.am      10 UNK        -0.7319 
     21 O         -70.6252   32.7142  -71.2865 O.2       10 UNK        -0.5018 
     22 N         -72.5294   31.1147  -73.9852 N.am      10 UNK        -0.4509 
     23 C         -71.7603   30.7580  -75.0175 C.2       10 UNK         0.4899 
     24 O         -70.7276   31.3420  -75.3517 O.2       10 UNK        -0.4839 
     25 CA        -72.2181   29.5147  -75.7969 C.3       9 UNK         0.0222 
     26 CB        -72.3762   29.8275  -77.2945 C.3       9 UNK        -0.1966 
     27 N         -71.2817   28.4030  -75.6288 N.am      9 UNK        -0.4218 
     28 C         -70.9674   27.8143  -74.4646 C.2       9 UNK         0.5020 
     29 O         -71.4472   28.1503  -73.3790 O.2       9 UNK        -0.5274 
     30 CA        -69.9355   26.6669  -74.5286 C.3       8 UNK         0.0270 
     31 CB        -69.9824   25.7508  -73.2861 C.3       8 UNK        -0.1976 
     32 N         -70.0150   25.8774  -75.7676 N.am      8 UNK        -0.4313 
     33 C         -71.0724   25.1796  -76.2061 C.2       8 UNK         0.5041 
     34 O         -72.1313   25.0500  -75.5857 O.2       8 UNK        -0.5577 
     35 CA        -70.9243   24.5067  -77.5781 C.3       7 UNK         0.0284 
     36 CB        -70.6294   23.0063  -77.4194 C.3       7 UNK        -0.1958 
     37 N         -72.1703   24.6798  -78.3191 N.am      7 UNK        -0.4454 
     38 C         -72.4923   25.7776  -79.0162 C.2       7 UNK         0.5089 
     39 O         -71.7017   26.6843  -79.2791 O.2       7 UNK        -0.5125 
     40 CA        -73.9634   25.8959  -79.4489 C.3       6 UNK         0.0408 
     41 CB        -74.2217   25.1070  -80.7422 C.3       6 UNK        -0.1791 
     42 N         -74.8607   25.4196  -78.3936 N.am      6 UNK        -0.4762 
     43 C         -75.1278   26.0846  -77.2607 C.2       6 UNK         0.5007 
     44 O         -74.7788   27.2502  -77.0679 O.2       6 UNK        -0.5032 
     45 CA        -75.9176   25.3197  -76.1732 C.3       5 UNK         0.0783 
     46 C46       -76.2058   26.1967  -74.9283 C.3       11 UNK        -0.0857 
     47 S47       -76.9687   25.2398  -73.5764 S.3       11 UNK        -0.2512 
     48 C48       -76.2888   26.0706  -72.1088 C.3       11 UNK         0.0225 
     49 N         -77.1467   24.7143  -76.7032 N.am      5 UNK        -0.4615 
     50 C         -77.2269   23.6062  -77.4464 C.2       4 UNK         0.5053 
     51 O         -76.2381   22.9706  -77.8183 O.2       4 UNK        -0.5105 
     52 CA        -78.6435   23.1380  -77.8303 C.3       4 UNK         0.0263 
     53 CB        -78.6272   21.9302  -78.7862 C.3       4 UNK        -0.1981 
     54 N         -79.4408   22.7972  -76.6489 N.am      4 UNK        -0.4224 
     55 C         -80.0599   23.6784  -75.8530 C.2       3 UNK         0.4895 
     56 O         -80.0041   24.9005  -76.0135 O.2       3 UNK        -0.5091 
     57 CA        -80.8381   23.0893  -74.6638 C.3       3 UNK         0.0250 
     58 CB        -79.9432   23.0044  -73.4181 C.3       3 UNK        -0.1996 
     59 N         -82.0305   23.8785  -74.3480 N.am      3 UNK        -0.4254 
     60 C         -83.1303   23.9206  -75.1162 C.2       2 UNK         0.5004 
     61 O         -83.2674   23.2489  -76.1403 O.2       2 UNK        -0.5226 
     62 CA        -84.2900   24.8348  -74.6745 C.3       2 UNK         0.0269 
     63 CB        -85.4466   23.9974  -74.1031 C.3       2 UNK        -0.1926 
     64 N         -83.9045   25.8428  -73.6850 N.am      2 UNK        -0.4687 
     65 C         -83.1766   26.9386  -73.9439 C.2       1 UNK         0.5165 
     66 O         -82.8249   27.2542  -75.0817 O.2       1 UNK        -0.5079 
     67 H67       -81.4975   25.6320  -69.0488 H         1 UNK         0.0900 
     68 H68       -82.7983   24.5780  -69.6095 H         1 UNK         0.0900 
     69 H69       -83.1611   26.2205  -69.0727 H         1 UNK         0.0900 
     70 H70       -83.5569   27.5906  -70.7860 H         1 UNK         0.2959 
     71 H71       -83.5740   28.6107  -72.7338 H         1 UNK         0.1079 
     72 H72       -80.6134   27.8409  -72.8911 H         1 UNK         0.0837 
     73 H73       -81.3774   29.0171  -73.9205 H         1 UNK         0.0837 
     74 H74       -80.3787   28.2373  -70.1700 H         1 UNK         0.0685 
     75 H75       -79.8740   29.8417  -69.7115 H         1 UNK         0.0685 
     76 H76       -78.6992   26.8146  -71.0817 H         1 UNK         0.1434 
     77 H77       -75.1156   28.4416  -72.7879 H         1 UNK         0.1329 
     78 H78       -78.2384   31.0632  -71.4573 H         1 UNK         0.1335 
     79 H79       -76.4057   31.9566  -72.7475 H         1 UNK         0.0680 
     80 H80       -75.3428   30.8720  -73.6107 H         1 UNK         0.0680 
     81 H81       -73.2567   33.5309  -71.6527 H         1 UNK         0.1032 
     82 H82       -74.1474   33.1843  -73.0974 H         1 UNK         0.1032 
     83 H83       -71.8072   33.0130  -73.6060 H         1 UNK         0.0461 
     84 H84       -69.9335   30.3774  -71.2170 H         1 UNK         0.3453 
     85 H85       -71.0472   29.8372  -72.4529 H         1 UNK         0.3453 
     86 H86       -73.3170   30.5333  -73.7419 H         1 UNK         0.2984 
     87 H87       -73.1889   29.1887  -75.4168 H         1 UNK         0.0554 
     88 H88       -72.7563   28.9648  -77.8422 H         1 UNK         0.0847 
     89 H89       -71.4307   30.1236  -77.7508 H         1 UNK         0.0847 
     90 H90       -73.0833   30.6434  -77.4490 H         1 UNK         0.0847 
     91 H91       -70.8301   28.0677  -76.4668 H         1 UNK         0.3141 
     92 H92       -68.9573   27.1500  -74.5388 H         1 UNK         0.0743 
     93 H93       -70.9599   25.2829  -73.1649 H         1 UNK         0.0784 
     94 H94       -69.2361   24.9589  -73.3474 H         1 UNK         0.0784 
     95 H95       -69.7793   26.3158  -72.3754 H         1 UNK         0.0784 
     96 H96       -69.1905   25.9086  -76.3531 H         1 UNK         0.3213 
     97 H97       -70.1036   24.9690  -78.1315 H         1 UNK         0.0855 
     98 H98       -71.4142   22.4959  -76.8594 H         1 UNK         0.0814 
     99 H99       -69.6923   22.8482  -76.8839 H         1 UNK         0.0814 
    100 H100      -70.5354   22.5159  -78.3885 H         1 UNK         0.0814 
    101 H101      -72.9092   24.0275  -78.1020 H         1 UNK         0.3105 
    102 H102      -74.1769   26.9493  -79.6427 H         1 UNK         0.0547 
    103 H103      -73.5696   25.4531  -81.5453 H         1 UNK         0.0837 
    104 H104      -74.0403   24.0395  -80.6117 H         1 UNK         0.0837 
    105 H105      -75.2492   25.2327  -81.0837 H         1 UNK         0.0837 
    106 H106      -75.2157   24.4700  -78.4693 H         1 UNK         0.3020 
    107 H107      -75.2574   24.5114  -75.8484 H         1 UNK         0.1245 
    108 H108      -76.8640   27.0304  -75.1801 H         1 UNK         0.0781 
    109 H109      -75.2769   26.6356  -74.5585 H         1 UNK         0.0781 
    110 H110      -75.1992   26.0874  -72.1670 H         1 UNK         0.0836 
    111 H111      -76.5347   25.4791  -71.2257 H         1 UNK         0.0836 
    112 H112      -78.0185   25.1486  -76.4176 H         1 UNK         0.3022 
    113 H113      -79.1258   23.9661  -78.3546 H         1 UNK         0.0747 
    114 H114      -79.6362   21.6525  -79.0919 H         1 UNK         0.0793 
    115 H115      -78.0676   22.1584  -79.6945 H         1 UNK         0.0793 
    116 H116      -78.1624   21.0563  -78.3278 H         1 UNK         0.0793 
    117 H117      -79.4991   21.8149  -76.4207 H         1 UNK         0.3047 
    118 H118      -81.1614   22.0789  -74.9241 H         1 UNK         0.0822 
    119 H119      -79.0444   22.4187  -73.6151 H         1 UNK         0.0807 
    120 H120      -80.4647   22.5324  -72.5853 H         1 UNK         0.0807 
    121 H121      -79.6220   23.9934  -73.0904 H         1 UNK         0.0807 
    122 H122      -81.9681   24.4878  -73.5390 H         1 UNK         0.2946 
    123 H123      -84.6483   25.3502  -75.5688 H         1 UNK         0.1144 
    124 H124      -85.7868   23.2552  -74.8269 H         1 UNK         0.0793 
    125 H125      -86.3054   24.6219  -73.8559 H         1 UNK         0.0793 
    126 H126      -85.1493   23.4603  -73.2015 H         1 UNK         0.0793 
    127 H127      -84.1529   25.6591  -72.7235 H         1 UNK         0.2896 
@<TRIPOS>BOND
     1    1    2 1    
     2    1   67 1    
     3    1   68 1    
     4    1   69 1    
     5    2    3 2    
     6    2    4 am   BACKBONE|DICT|INTERRES
     7    4    5 1    
     8    4   70 1    
     9    5    6 1    
    10    5   65 1    
    11    5   71 1    
    12    6    7 1    
    13    6   72 1    
    14    6   73 1    
    15    7    8 1    
    16    8    9 1    
    17    8   74 1    
    18    8   75 1    
    19    9   10 ar   
    20    9   14 ar   
    21   10   11 ar   
    22   10   76 1    
    23   11   12 ar   
    24   11   48 1    
    25   12   13 ar   
    26   12   77 1    
    27   13   14 ar   
    28   13   15 1    
    29   14   78 1    
    30   15   16 1    
    31   15   79 1    
    32   15   80 1    
    33   16   17 1    
    34   17   18 1    
    35   17   81 1    
    36   17   82 1    
    37   18   19 1    
    38   18   22 1    
    39   18   83 1    
    40   19   20 am   BACKBONE|DICT|INTERRES
    41   19   21 2    
    42   20   84 1    
    43   20   85 1    
    44   22   23 am   BACKBONE|DICT|INTERRES
    45   22   86 1    
    46   23   24 2    
    47   23   25 1    
    48   25   26 1    
    49   25   27 1    
    50   25   87 1    
    51   26   88 1    
    52   26   89 1    
    53   26   90 1    
    54   27   28 am   BACKBONE|DICT|INTERRES
    55   27   91 1    
    56   28   29 2    
    57   28   30 1    
    58   30   31 1    
    59   30   32 1    
    60   30   92 1    
    61   31   93 1    
    62   31   94 1    
    63   31   95 1    
    64   32   33 am   BACKBONE|DICT|INTERRES
    65   32   96 1    
    66   33   34 2    
    67   33   35 1    
    68   35   36 1    
    69   35   37 1    
    70   35   97 1    
    71   36   98 1    
    72   36   99 1    
    73   36  100 1    
    74   37   38 am   BACKBONE|DICT|INTERRES
    75   37  101 1    
    76   38   39 2    
    77   38   40 1    
    78   40   41 1    
    79   40   42 1    
    80   40  102 1    
    81   41  103 1    
    82   41  104 1    
    83   41  105 1    
    84   42   43 am   BACKBONE|DICT|INTERRES
    85   42  106 1    
    86   43   44 2    
    87   43   45 1    
    88   45   46 1    
    89   45   49 1    
    90   45  107 1    
    91   46   47 1    
    92   46  108 1    
    93   46  109 1    
    94   47   48 1    
    95   48  110 1    
    96   48  111 1    
    97   49   50 am   BACKBONE|DICT|INTERRES
    98   49  112 1    
    99   50   51 2    
   100   50   52 1    
   101   52   53 1    
   102   52   54 1    
   103   52  113 1    
   104   53  114 1    
   105   53  115 1    
   106   53  116 1    
   107   54   55 am   BACKBONE|DICT|INTERRES
   108   54  117 1    
   109   55   56 2    
   110   55   57 1    
   111   57   58 1    
   112   57   59 1    
   113   57  118 1    
   114   58  119 1    
   115   58  120 1    
   116   58  121 1    
   117   59   60 am   BACKBONE|DICT|INTERRES
   118   59  122 1    
   119   60   61 2    
   120   60   62 1    
   121   62   63 1    
   122   62   64 1    
   123   62  123 1    
   124   63  124 1    
   125   63  125 1    
   126   63  126 1    
   127   64   65 am   BACKBONE|DICT|INTERRES
   128   64  127 1    
   129   65   66 2    
@<TRIPOS>SUBSTRUCTURE
     1 UNK         1 GROUP             0       ****    0 ROOT    
