@<TRIPOS>MOLECULE
3R135
127   129    1
SMALL
USER_CHARGES


@<TRIPOS>ATOM
      1 CA        -82.9561   23.7890  -71.3214 C.3       0 UNK        -0.1998 
      2 C         -83.2918   25.0266  -72.1397 C.2       0 UNK         0.4909 
      3 O         -84.4153   25.1531  -72.6270 O.2       0 UNK        -0.5240 
      4 N         -82.3240   25.9402  -72.2933 N.am      1 UNK        -0.4739 
      5 CA        -82.4654   27.1971  -73.0432 C.3       1 UNK         0.0864 
      6 C6        -81.2904   28.1631  -72.7660 C.3       11 UNK        -0.0881 
      7 S7        -81.1634   28.6710  -71.0165 S.3       11 UNK        -0.2682 
      8 C8        -79.5486   27.9667  -70.5188 C.3       11 UNK         0.0289 
      9 C9        -78.3096   28.4975  -71.2501 C.ar      11 UNK        -0.0687 
     10 C10       -78.3608   29.5232  -72.2049 C.ar      11 UNK        -0.0823 
     11 C11       -77.2110   29.9309  -72.8862 C.ar      11 UNK        -0.0830 
     12 C12       -75.9846   29.3423  -72.5734 C.ar      11 UNK        -0.1021 
     13 C13       -75.9091   28.3359  -71.6083 C.ar      11 UNK        -0.0753 
     14 C14       -77.0714   27.9172  -70.9547 C.ar      11 UNK        -0.0933 
     15 C15       -74.5679   27.7011  -71.2871 C.3       11 UNK         0.0166 
     16 S16       -73.6186   28.7585  -70.1524 S.3       11 UNK        -0.2615 
     17 C17       -71.9048   28.3880  -70.6544 C.3       11 UNK        -0.0865 
     18 CA        -71.2971   29.5152  -71.5297 C.3       10 UNK         0.0862 
     19 C         -69.7719   29.2916  -71.7202 C.2       10 UNK         0.5551 
     20 N         -68.9494   29.8551  -70.8464 N.am      10 UNK        -0.7319 
     21 O         -69.3343   28.5788  -72.6213 O.2       10 UNK        -0.5018 
     22 N         -72.0016   29.6402  -72.8139 N.am      10 UNK        -0.4509 
     23 C         -71.8505   30.6422  -73.6869 C.2       10 UNK         0.4899 
     24 O         -71.1853   31.6543  -73.4598 O.2       10 UNK        -0.4839 
     25 CA        -72.5367   30.4557  -75.0557 C.3       9 UNK         0.0222 
     26 CB        -72.4056   31.6931  -75.9630 C.3       9 UNK        -0.1966 
     27 N         -71.9960   29.2867  -75.7568 N.am      9 UNK        -0.4218 
     28 C         -72.3451   28.0205  -75.5014 C.2       9 UNK         0.5020 
     29 O         -73.1932   27.7056  -74.6656 O.2       9 UNK        -0.5274 
     30 CA        -71.5749   26.9233  -76.2389 C.3       8 UNK         0.0270 
     31 CB        -70.3457   26.4964  -75.4110 C.3       8 UNK        -0.1976 
     32 N         -72.4745   25.7930  -76.4593 N.am      8 UNK        -0.4313 
     33 C         -72.2344   24.7521  -77.2662 C.2       8 UNK         0.5041 
     34 O         -71.1827   24.5910  -77.8878 O.2       8 UNK        -0.5577 
     35 CA        -73.3692   23.7279  -77.4374 C.3       7 UNK         0.0284 
     36 CB        -73.5313   22.8642  -76.1757 C.3       7 UNK        -0.1958 
     37 N         -74.6457   24.3593  -77.7765 N.am      7 UNK        -0.4454 
     38 C         -74.8903   25.0347  -78.9100 C.2       7 UNK         0.5089 
     39 O         -74.0916   25.1270  -79.8427 O.2       7 UNK        -0.5125 
     40 CA        -76.2524   25.7446  -79.0204 C.3       6 UNK         0.0408 
     41 CB        -77.3031   24.8054  -79.6301 C.3       6 UNK        -0.1791 
     42 N         -76.7327   26.2642  -77.7364 N.am      6 UNK        -0.4762 
     43 C         -76.1198   27.2342  -77.0384 C.2       6 UNK         0.5007 
     44 O         -75.1185   27.8272  -77.4399 O.2       6 UNK        -0.5032 
     45 CA        -76.7099   27.5867  -75.6595 C.3       5 UNK         0.0783 
     46 C46       -77.7132   28.7677  -75.7496 C.3       11 UNK        -0.0857 
     47 S47       -76.8442   30.3731  -75.6293 S.3       11 UNK        -0.2512 
     48 C48       -77.3088   30.9929  -73.9746 C.3       11 UNK         0.0225 
     49 N         -77.2881   26.4078  -75.0067 N.am      5 UNK        -0.4615 
     50 C         -76.5581   25.4746  -74.3778 C.2       4 UNK         0.5053 
     51 O         -75.3330   25.5069  -74.2810 O.2       4 UNK        -0.5105 
     52 CA        -77.3193   24.2767  -73.7858 C.3       4 UNK         0.0263 
     53 CB        -77.9948   24.6669  -72.4606 C.3       4 UNK        -0.1981 
     54 N         -78.3177   23.7194  -74.6999 N.am      4 UNK        -0.4224 
     55 C         -78.0550   23.2125  -75.9133 C.2       3 UNK         0.4895 
     56 O         -76.9254   23.1207  -76.3921 O.2       3 UNK        -0.5091 
     57 CA        -79.2655   22.7706  -76.7544 C.3       3 UNK         0.0250 
     58 CB        -79.6044   21.2986  -76.4708 C.3       3 UNK        -0.1996 
     59 N         -80.4675   23.5929  -76.5687 N.am      3 UNK        -0.4254 
     60 C         -80.5434   24.9229  -76.7287 C.2       2 UNK         0.5004 
     61 O         -79.5785   25.6439  -76.9900 O.2       2 UNK        -0.5226 
     62 CA        -81.9135   25.5628  -76.4901 C.3       2 UNK         0.0269 
     63 CB        -83.1031   24.6776  -76.9161 C.3       2 UNK        -0.1926 
     64 N         -82.0111   25.8871  -75.0710 N.am      2 UNK        -0.4687 
     65 C         -82.5921   26.9817  -74.5671 C.2       1 UNK         0.5165 
     66 O         -83.1847   27.8180  -75.2508 O.2       1 UNK        -0.5079 
     67 H67       -83.6217   23.7167  -70.4617 H         1 UNK         0.0900 
     68 H68       -83.0838   22.8925  -71.9275 H         1 UNK         0.0900 
     69 H69       -81.9300   23.8072  -70.9545 H         1 UNK         0.0900 
     70 H70       -81.4360   25.8022  -71.8342 H         1 UNK         0.2959 
     71 H71       -83.3899   27.6785  -72.7157 H         1 UNK         0.1079 
     72 H72       -80.3502   27.7138  -73.0915 H         1 UNK         0.0837 
     73 H73       -81.4054   29.0771  -73.3528 H         1 UNK         0.0837 
     74 H74       -79.4201   28.1509  -69.4513 H         1 UNK         0.0685 
     75 H75       -79.5952   26.8836  -70.6381 H         1 UNK         0.0685 
     76 H76       -79.2972   30.0032  -72.4449 H         1 UNK         0.1434 
     77 H77       -75.0895   29.6558  -73.0918 H         1 UNK         0.1329 
     78 H78       -77.0117   27.1324  -70.2130 H         1 UNK         0.1335 
     79 H79       -74.0177   27.5433  -72.2140 H         1 UNK         0.0680 
     80 H80       -74.6999   26.7149  -70.8395 H         1 UNK         0.0680 
     81 H81       -71.3240   28.2654  -69.7379 H         1 UNK         0.1032 
     82 H82       -71.8575   27.4252  -71.1673 H         1 UNK         0.1032 
     83 H83       -71.4290   30.4613  -71.0003 H         1 UNK         0.0461 
     84 H84       -69.2992   30.4338  -70.0984 H         1 UNK         0.3453 
     85 H85       -67.9567   29.7084  -70.9433 H         1 UNK         0.3453 
     86 H86       -72.5221   28.8278  -73.1269 H         1 UNK         0.2984 
     87 H87       -73.6016   30.2986  -74.8718 H         1 UNK         0.0554 
     88 H88       -72.8240   32.5766  -75.4791 H         1 UNK         0.0847 
     89 H89       -72.9449   31.5549  -76.9003 H         1 UNK         0.0847 
     90 H90       -71.3646   31.9140  -76.2024 H         1 UNK         0.0847 
     91 H91       -71.2554   29.4629  -76.4208 H         1 UNK         0.3141 
     92 H92       -71.2532   27.3064  -77.2095 H         1 UNK         0.0743 
     93 H93       -70.6388   26.0741  -74.4488 H         1 UNK         0.0784 
     94 H94       -69.7419   25.7543  -75.9326 H         1 UNK         0.0784 
     95 H95       -69.6966   27.3488  -75.2056 H         1 UNK         0.0784 
     96 H96       -73.3632   25.8670  -75.9737 H         1 UNK         0.3213 
     97 H97       -73.0976   23.0680  -78.2642 H         1 UNK         0.0855 
     98 H98       -73.8490   23.4550  -75.3160 H         1 UNK         0.0814 
     99 H99       -72.5904   22.3802  -75.9105 H         1 UNK         0.0814 
    100 H100      -74.2694   22.0765  -76.3283 H         1 UNK         0.0814 
    101 H101      -75.4004   24.2574  -77.1049 H         1 UNK         0.3105 
    102 H102      -76.1316   26.5966  -79.6926 H         1 UNK         0.0547 
    103 H103      -77.0293   24.5304  -80.6493 H         1 UNK         0.0837 
    104 H104      -77.3902   23.8810  -79.0614 H         1 UNK         0.0837 
    105 H105      -78.2868   25.2736  -79.6718 H         1 UNK         0.0837 
    106 H106      -77.5904   25.8654  -77.3668 H         1 UNK         0.3020 
    107 H107      -75.8669   27.9025  -75.0394 H         1 UNK         0.1245 
    108 H108      -78.4554   28.7064  -74.9535 H         1 UNK         0.0781 
    109 H109      -78.2902   28.7393  -76.6763 H         1 UNK         0.0781 
    110 H110      -78.3203   31.3982  -74.0301 H         1 UNK         0.0836 
    111 H111      -76.6597   31.8307  -73.7164 H         1 UNK         0.0836 
    112 H112      -78.2815   26.2659  -75.1218 H         1 UNK         0.3022 
    113 H113      -76.5895   23.4907  -73.5797 H         1 UNK         0.0747 
    114 H114      -78.4849   23.8115  -71.9954 H         1 UNK         0.0793 
    115 H115      -77.2580   25.0410  -71.7487 H         1 UNK         0.0793 
    116 H116      -78.7401   25.4505  -72.5998 H         1 UNK         0.0793 
    117 H117      -79.2769   23.7284  -74.3901 H         1 UNK         0.3047 
    118 H118      -78.9827   22.8520  -77.8042 H         1 UNK         0.0822 
    119 H119      -80.3868   20.9349  -77.1373 H         1 UNK         0.0807 
    120 H120      -79.9409   21.1502  -75.4439 H         1 UNK         0.0807 
    121 H121      -78.7318   20.6612  -76.6229 H         1 UNK         0.0807 
    122 H122      -81.3179   23.0955  -76.3467 H         1 UNK         0.2946 
    123 H123      -81.9347   26.4790  -77.0857 H         1 UNK         0.1144 
    124 H124      -84.0374   25.2374  -76.8673 H         1 UNK         0.0793 
    125 H125      -83.2178   23.7999  -76.2793 H         1 UNK         0.0793 
    126 H126      -82.9899   24.3334  -77.9452 H         1 UNK         0.0793 
    127 H127      -81.5450   25.2614  -74.4307 H         1 UNK         0.2896 
@<TRIPOS>BOND
     1    1    2 1    
     2    1   67 1    
     3    1   68 1    
     4    1   69 1    
     5    2    3 2    
     6    2    4 am   BACKBONE|DICT|INTERRES
     7    4    5 1    
     8    4   70 1    
     9    5    6 1    
    10    5   65 1    
    11    5   71 1    
    12    6    7 1    
    13    6   72 1    
    14    6   73 1    
    15    7    8 1    
    16    8    9 1    
    17    8   74 1    
    18    8   75 1    
    19    9   10 ar   
    20    9   14 ar   
    21   10   11 ar   
    22   10   76 1    
    23   11   12 ar   
    24   11   48 1    
    25   12   13 ar   
    26   12   77 1    
    27   13   14 ar   
    28   13   15 1    
    29   14   78 1    
    30   15   16 1    
    31   15   79 1    
    32   15   80 1    
    33   16   17 1    
    34   17   18 1    
    35   17   81 1    
    36   17   82 1    
    37   18   19 1    
    38   18   22 1    
    39   18   83 1    
    40   19   20 am   BACKBONE|DICT|INTERRES
    41   19   21 2    
    42   20   84 1    
    43   20   85 1    
    44   22   23 am   BACKBONE|DICT|INTERRES
    45   22   86 1    
    46   23   24 2    
    47   23   25 1    
    48   25   26 1    
    49   25   27 1    
    50   25   87 1    
    51   26   88 1    
    52   26   89 1    
    53   26   90 1    
    54   27   28 am   BACKBONE|DICT|INTERRES
    55   27   91 1    
    56   28   29 2    
    57   28   30 1    
    58   30   31 1    
    59   30   32 1    
    60   30   92 1    
    61   31   93 1    
    62   31   94 1    
    63   31   95 1    
    64   32   33 am   BACKBONE|DICT|INTERRES
    65   32   96 1    
    66   33   34 2    
    67   33   35 1    
    68   35   36 1    
    69   35   37 1    
    70   35   97 1    
    71   36   98 1    
    72   36   99 1    
    73   36  100 1    
    74   37   38 am   BACKBONE|DICT|INTERRES
    75   37  101 1    
    76   38   39 2    
    77   38   40 1    
    78   40   41 1    
    79   40   42 1    
    80   40  102 1    
    81   41  103 1    
    82   41  104 1    
    83   41  105 1    
    84   42   43 am   BACKBONE|DICT|INTERRES
    85   42  106 1    
    86   43   44 2    
    87   43   45 1    
    88   45   46 1    
    89   45   49 1    
    90   45  107 1    
    91   46   47 1    
    92   46  108 1    
    93   46  109 1    
    94   47   48 1    
    95   48  110 1    
    96   48  111 1    
    97   49   50 am   BACKBONE|DICT|INTERRES
    98   49  112 1    
    99   50   51 2    
   100   50   52 1    
   101   52   53 1    
   102   52   54 1    
   103   52  113 1    
   104   53  114 1    
   105   53  115 1    
   106   53  116 1    
   107   54   55 am   BACKBONE|DICT|INTERRES
   108   54  117 1    
   109   55   56 2    
   110   55   57 1    
   111   57   58 1    
   112   57   59 1    
   113   57  118 1    
   114   58  119 1    
   115   58  120 1    
   116   58  121 1    
   117   59   60 am   BACKBONE|DICT|INTERRES
   118   59  122 1    
   119   60   61 2    
   120   60   62 1    
   121   62   63 1    
   122   62   64 1    
   123   62  123 1    
   124   63  124 1    
   125   63  125 1    
   126   63  126 1    
   127   64   65 am   BACKBONE|DICT|INTERRES
   128   64  127 1    
   129   65   66 2    
@<TRIPOS>SUBSTRUCTURE
     1 UNK         1 GROUP             0       ****    0 ROOT    
