@<TRIPOS>MOLECULE
3R135
127   129    1
SMALL
USER_CHARGES


@<TRIPOS>ATOM
      1 CA        -81.9966   22.6445  -72.6527 C.3       0 UNK        -0.1998 
      2 C         -82.2803   24.0335  -73.2046 C.2       0 UNK         0.4909 
      3 O         -83.0715   24.1715  -74.1375 O.2       0 UNK        -0.5240 
      4 N         -81.6413   25.0629  -72.6330 N.am      1 UNK        -0.4739 
      5 CA        -81.7100   26.4559  -73.0850 C.3       1 UNK         0.0864 
      6 C6        -81.0851   27.3977  -72.0270 C.3       11 UNK        -0.0881 
      7 S7        -81.1843   29.1777  -72.4273 S.3       11 UNK        -0.2682 
      8 C8        -80.0043   29.8911  -71.2302 C.3       11 UNK         0.0289 
      9 C9        -78.5637   29.5115  -71.5480 C.ar      11 UNK        -0.0687 
     10 C10       -77.9629   28.4271  -70.9010 C.ar      11 UNK        -0.0823 
     11 C11       -76.6724   28.0159  -71.2479 C.ar      11 UNK        -0.0830 
     12 C12       -75.9591   28.7444  -72.2041 C.ar      11 UNK        -0.1021 
     13 C13       -76.5247   29.8656  -72.8183 C.ar      11 UNK        -0.0753 
     14 C14       -77.8340   30.2361  -72.4959 C.ar      11 UNK        -0.0933 
     15 C15       -75.7378   30.6518  -73.8589 C.3       11 UNK         0.0166 
     16 S16       -74.8940   32.1002  -73.1476 S.3       11 UNK        -0.2615 
     17 C17       -73.4870   31.3445  -72.2588 C.3       11 UNK        -0.0865 
     18 CA        -72.1572   31.4151  -73.0539 C.3       10 UNK         0.0862 
     19 C         -70.9725   30.9293  -72.1770 C.2       10 UNK         0.5551 
     20 N         -70.1820   31.8445  -71.6339 N.am      10 UNK        -0.7319 
     21 O         -70.7992   29.7342  -71.9477 O.2       10 UNK        -0.5018 
     22 N         -72.2356   30.6617  -74.3131 N.am      10 UNK        -0.4509 
     23 C         -71.3797   30.7854  -75.3344 C.2       10 UNK         0.4899 
     24 O         -70.4520   31.5965  -75.3585 O.2       10 UNK        -0.4839 
     25 CA        -71.6248   29.8477  -76.5325 C.3       9 UNK         0.0222 
     26 CB        -70.5359   29.9520  -77.6221 C.3       9 UNK        -0.1966 
     27 N         -71.8346   28.4519  -76.1272 N.am      9 UNK        -0.4218 
     28 C         -70.9630   27.6449  -75.4967 C.2       9 UNK         0.5020 
     29 O         -69.8220   27.9829  -75.1786 O.2       9 UNK        -0.5274 
     30 CA        -71.4259   26.2140  -75.1503 C.3       8 UNK         0.0270 
     31 CB        -71.6698   26.0892  -73.6369 C.3       8 UNK        -0.1976 
     32 N         -72.6298   25.7904  -75.8734 N.am      8 UNK        -0.4313 
     33 C         -72.6644   25.4959  -77.1835 C.2       8 UNK         0.5041 
     34 O         -71.6557   25.4357  -77.8878 O.2       8 UNK        -0.5577 
     35 CA        -74.0410   25.2617  -77.8440 C.3       7 UNK         0.0284 
     36 CB        -74.2763   23.7609  -78.0782 C.3       7 UNK        -0.1958 
     37 N         -75.1820   25.8168  -77.1087 N.am      7 UNK        -0.4454 
     38 C         -75.3337   27.0985  -76.7475 C.2       7 UNK         0.5089 
     39 O         -74.5506   27.9971  -77.0564 O.2       7 UNK        -0.5125 
     40 CA        -76.5068   27.4225  -75.8102 C.3       6 UNK         0.0408 
     41 CB        -77.7260   27.8945  -76.6085 C.3       6 UNK        -0.1791 
     42 N         -76.8887   26.3292  -74.9097 N.am      6 UNK        -0.4762 
     43 C         -76.0696   25.7285  -74.0307 C.2       6 UNK         0.5007 
     44 O         -74.8767   26.0064  -73.9073 O.2       6 UNK        -0.5032 
     45 CA        -76.6804   24.5939  -73.1882 C.3       5 UNK         0.0783 
     46 C46       -77.7476   25.1217  -72.1938 C.3       11 UNK        -0.0857 
     47 S47       -77.1269   25.3302  -70.4909 S.3       11 UNK        -0.2512 
     48 C48       -76.0314   26.7911  -70.6007 C.3       11 UNK         0.0225 
     49 N         -77.2041   23.5500  -74.0733 N.am      5 UNK        -0.4615 
     50 C         -76.4306   22.7001  -74.7635 C.2       4 UNK         0.5053 
     51 O         -75.2081   22.6364  -74.6371 O.2       4 UNK        -0.5105 
     52 CA        -77.1205   21.7628  -75.7721 C.3       4 UNK         0.0263 
     53 CB        -77.3431   20.3771  -75.1447 C.3       4 UNK        -0.1981 
     54 N         -78.3937   22.2552  -76.3103 N.am      4 UNK        -0.4224 
     55 C         -78.5639   23.3840  -77.0131 C.2       3 UNK         0.4895 
     56 O         -77.6594   24.1912  -77.2345 O.2       3 UNK        -0.5091 
     57 CA        -79.9755   23.6803  -77.5424 C.3       3 UNK         0.0250 
     58 CB        -81.0474   22.6379  -77.1497 C.3       3 UNK        -0.1996 
     59 N         -80.3602   24.9991  -77.0590 N.am      3 UNK        -0.4254 
     60 C         -81.2402   25.8352  -77.6132 C.2       2 UNK         0.5004 
     61 O         -81.8696   25.5793  -78.6417 O.2       2 UNK        -0.5226 
     62 CA        -81.4529   27.1801  -76.8816 C.3       2 UNK         0.0269 
     63 CB        -82.5065   28.0671  -77.5715 C.3       2 UNK        -0.1926 
     64 N         -81.8249   27.0243  -75.4699 N.am      2 UNK        -0.4687 
     65 C         -81.0440   26.5832  -74.4725 C.2       1 UNK         0.5165 
     66 O         -79.8627   26.2473  -74.6163 O.2       1 UNK        -0.5079 
     67 H67       -81.6043   22.0011  -73.4396 H         1 UNK         0.0900 
     68 H68       -81.2703   22.6680  -71.8405 H         1 UNK         0.0900 
     69 H69       -82.9151   22.1974  -72.2736 H         1 UNK         0.0900 
     70 H70       -81.0055   24.8834  -71.8699 H         1 UNK         0.2959 
     71 H71       -82.7664   26.7174  -73.1798 H         1 UNK         0.1079 
     72 H72       -80.0452   27.1241  -71.8728 H         1 UNK         0.0837 
     73 H73       -81.5790   27.2498  -71.0653 H         1 UNK         0.0837 
     74 H74       -80.1057   30.9773  -71.2416 H         1 UNK         0.0685 
     75 H75       -80.2728   29.5716  -70.2220 H         1 UNK         0.0685 
     76 H76       -78.5174   27.8737  -70.1556 H         1 UNK         0.1434 
     77 H77       -74.9619   28.4295  -72.4792 H         1 UNK         0.1329 
     78 H78       -78.2892   31.0837  -72.9898 H         1 UNK         0.1335 
     79 H79       -76.4144   30.9923  -74.6442 H         1 UNK         0.0680 
     80 H80       -75.0032   30.0146  -74.3510 H         1 UNK         0.0680 
     81 H81       -73.7164   30.3167  -71.9803 H         1 UNK         0.1032 
     82 H82       -73.3843   31.8845  -71.3154 H         1 UNK         0.1032 
     83 H83       -71.9831   32.4623  -73.3115 H         1 UNK         0.0461 
     84 H84       -69.4183   31.5466  -71.0471 H         1 UNK         0.3453 
     85 H85       -70.3233   32.8270  -71.8115 H         1 UNK         0.3453 
     86 H86       -72.9413   29.9445  -74.3615 H         1 UNK         0.2984 
     87 H87       -72.5641   30.1726  -76.9825 H         1 UNK         0.0554 
     88 H88       -70.4715   30.9682  -78.0126 H         1 UNK         0.0847 
     89 H89       -70.7539   29.2951  -78.4642 H         1 UNK         0.0847 
     90 H90       -69.5493   29.6899  -77.2389 H         1 UNK         0.0847 
     91 H91       -72.7514   28.0787  -76.3617 H         1 UNK         0.3141 
     92 H92       -70.6147   25.5343  -75.4194 H         1 UNK         0.0743 
     93 H93       -70.7549   26.2898  -73.0777 H         1 UNK         0.0784 
     94 H94       -72.4204   26.8000  -73.2893 H         1 UNK         0.0784 
     95 H95       -72.0036   25.0872  -73.3662 H         1 UNK         0.0784 
     96 H96       -73.4991   25.8043  -75.3458 H         1 UNK         0.3213 
     97 H97       -74.0161   25.7592  -78.8156 H         1 UNK         0.0855 
     98 H98       -74.3069   23.2087  -77.1389 H         1 UNK         0.0814 
     99 H99       -73.4771   23.3299  -78.6828 H         1 UNK         0.0814 
    100 H100      -75.2135   23.5811  -78.6053 H         1 UNK         0.0814 
    101 H101      -75.9272   25.1709  -76.8640 H         1 UNK         0.3105 
    102 H102      -76.1853   28.2475  -75.1790 H         1 UNK         0.0547 
    103 H103      -77.4592   28.6985  -77.2958 H         1 UNK         0.0837 
    104 H104      -78.4943   28.2845  -75.9412 H         1 UNK         0.0837 
    105 H105      -78.1540   27.0845  -77.1999 H         1 UNK         0.0837 
    106 H106      -77.8695   26.0704  -74.9136 H         1 UNK         0.3020 
    107 H107      -75.8636   24.1472  -72.6156 H         1 UNK         0.1245 
    108 H108      -78.5754   24.4148  -72.1228 H         1 UNK         0.0781 
    109 H109      -78.2016   26.0529  -72.5307 H         1 UNK         0.0781 
    110 H110      -75.1280   26.5012  -71.1396 H         1 UNK         0.0836 
    111 H111      -75.7093   27.0601  -69.5941 H         1 UNK         0.0836 
    112 H112      -78.1986   23.5438  -74.2402 H         1 UNK         0.3022 
    113 H113      -76.4376   21.6481  -76.6165 H         1 UNK         0.0747 
    114 H114      -76.4079   19.9674  -74.7599 H         1 UNK         0.0793 
    115 H115      -78.0470   20.4188  -74.3125 H         1 UNK         0.0793 
    116 H116      -77.7272   19.6658  -75.8762 H         1 UNK         0.0793 
    117 H117      -79.1970   21.6587  -76.1745 H         1 UNK         0.3047 
    118 H118      -79.8998   23.7121  -78.6312 H         1 UNK         0.0822 
    119 H119      -82.0139   22.8894  -77.5871 H         1 UNK         0.0807 
    120 H120      -81.1875   22.5826  -76.0694 H         1 UNK         0.0807 
    121 H121      -80.7909   21.6421  -77.5136 H         1 UNK         0.0807 
    122 H122      -79.9020   25.3110  -76.2064 H         1 UNK         0.2946 
    123 H123      -80.5055   27.7155  -76.9259 H         1 UNK         0.1144 
    124 H124      -83.4922   27.6002  -77.5675 H         1 UNK         0.0793 
    125 H125      -82.2390   28.2567  -78.6120 H         1 UNK         0.0793 
    126 H126      -82.5916   29.0373  -77.0815 H         1 UNK         0.0793 
    127 H127      -82.7902   27.2276  -75.2541 H         1 UNK         0.2896 
@<TRIPOS>BOND
     1    1    2 1    
     2    1   67 1    
     3    1   68 1    
     4    1   69 1    
     5    2    3 2    
     6    2    4 am   BACKBONE|DICT|INTERRES
     7    4    5 1    
     8    4   70 1    
     9    5    6 1    
    10    5   65 1    
    11    5   71 1    
    12    6    7 1    
    13    6   72 1    
    14    6   73 1    
    15    7    8 1    
    16    8    9 1    
    17    8   74 1    
    18    8   75 1    
    19    9   10 ar   
    20    9   14 ar   
    21   10   11 ar   
    22   10   76 1    
    23   11   12 ar   
    24   11   48 1    
    25   12   13 ar   
    26   12   77 1    
    27   13   14 ar   
    28   13   15 1    
    29   14   78 1    
    30   15   16 1    
    31   15   79 1    
    32   15   80 1    
    33   16   17 1    
    34   17   18 1    
    35   17   81 1    
    36   17   82 1    
    37   18   19 1    
    38   18   22 1    
    39   18   83 1    
    40   19   20 am   BACKBONE|DICT|INTERRES
    41   19   21 2    
    42   20   84 1    
    43   20   85 1    
    44   22   23 am   BACKBONE|DICT|INTERRES
    45   22   86 1    
    46   23   24 2    
    47   23   25 1    
    48   25   26 1    
    49   25   27 1    
    50   25   87 1    
    51   26   88 1    
    52   26   89 1    
    53   26   90 1    
    54   27   28 am   BACKBONE|DICT|INTERRES
    55   27   91 1    
    56   28   29 2    
    57   28   30 1    
    58   30   31 1    
    59   30   32 1    
    60   30   92 1    
    61   31   93 1    
    62   31   94 1    
    63   31   95 1    
    64   32   33 am   BACKBONE|DICT|INTERRES
    65   32   96 1    
    66   33   34 2    
    67   33   35 1    
    68   35   36 1    
    69   35   37 1    
    70   35   97 1    
    71   36   98 1    
    72   36   99 1    
    73   36  100 1    
    74   37   38 am   BACKBONE|DICT|INTERRES
    75   37  101 1    
    76   38   39 2    
    77   38   40 1    
    78   40   41 1    
    79   40   42 1    
    80   40  102 1    
    81   41  103 1    
    82   41  104 1    
    83   41  105 1    
    84   42   43 am   BACKBONE|DICT|INTERRES
    85   42  106 1    
    86   43   44 2    
    87   43   45 1    
    88   45   46 1    
    89   45   49 1    
    90   45  107 1    
    91   46   47 1    
    92   46  108 1    
    93   46  109 1    
    94   47   48 1    
    95   48  110 1    
    96   48  111 1    
    97   49   50 am   BACKBONE|DICT|INTERRES
    98   49  112 1    
    99   50   51 2    
   100   50   52 1    
   101   52   53 1    
   102   52   54 1    
   103   52  113 1    
   104   53  114 1    
   105   53  115 1    
   106   53  116 1    
   107   54   55 am   BACKBONE|DICT|INTERRES
   108   54  117 1    
   109   55   56 2    
   110   55   57 1    
   111   57   58 1    
   112   57   59 1    
   113   57  118 1    
   114   58  119 1    
   115   58  120 1    
   116   58  121 1    
   117   59   60 am   BACKBONE|DICT|INTERRES
   118   59  122 1    
   119   60   61 2    
   120   60   62 1    
   121   62   63 1    
   122   62   64 1    
   123   62  123 1    
   124   63  124 1    
   125   63  125 1    
   126   63  126 1    
   127   64   65 am   BACKBONE|DICT|INTERRES
   128   64  127 1    
   129   65   66 2    
@<TRIPOS>SUBSTRUCTURE
     1 UNK         1 GROUP             0       ****    0 ROOT    
