@<TRIPOS>MOLECULE
3R135
127   129    1
SMALL
USER_CHARGES


@<TRIPOS>ATOM
      1 CA        -79.6234   30.6981  -75.8754 C.3       0 UNK        -0.1998 
      2 C         -79.1289   29.4081  -75.2399 C.2       0 UNK         0.4909 
      3 O         -77.9845   29.0200  -75.4623 O.2       0 UNK        -0.5240 
      4 N         -79.9859   28.7399  -74.4574 N.am      1 UNK        -0.4739 
      5 CA        -79.6624   27.5108  -73.7165 C.3       1 UNK         0.0864 
      6 C6        -80.5108   27.3613  -72.4235 C.3       11 UNK        -0.0881 
      7 S7        -80.5439   28.8571  -71.3751 S.3       11 UNK        -0.2682 
      8 C8        -79.1575   28.5584  -70.2285 C.3       11 UNK         0.0289 
      9 C9        -77.8025   28.5851  -70.9253 C.ar      11 UNK        -0.0687 
     10 C10       -76.9220   27.5052  -70.7979 C.ar      11 UNK        -0.0823 
     11 C11       -75.6784   27.5241  -71.4384 C.ar      11 UNK        -0.0830 
     12 C12       -75.3247   28.6266  -72.2183 C.ar      11 UNK        -0.1021 
     13 C13       -76.1904   29.7163  -72.3460 C.ar      11 UNK        -0.0753 
     14 C14       -77.4232   29.6935  -71.6903 C.ar      11 UNK        -0.0933 
     15 C15       -75.8033   30.9078  -73.2083 C.3       11 UNK         0.0166 
     16 S16       -75.3172   32.3728  -72.2405 S.3       11 UNK        -0.2615 
     17 C17       -74.0422   31.7480  -71.0898 C.3       11 UNK        -0.0865 
     18 CA        -72.6038   31.7701  -71.6714 C.3       10 UNK         0.0862 
     19 C         -71.5673   31.6302  -70.5203 C.2       10 UNK         0.5551 
     20 N         -71.0616   32.7408  -70.0023 N.am      10 UNK        -0.7319 
     21 O         -71.2583   30.5299  -70.0662 O.2       10 UNK        -0.5018 
     22 N         -72.4256   30.7414  -72.7096 N.am      10 UNK        -0.4509 
     23 C         -71.3184   30.5746  -73.4459 C.2       10 UNK         0.4899 
     24 O         -70.3615   31.3498  -73.4320 O.2       10 UNK        -0.4839 
     25 CA        -71.2471   29.3235  -74.3424 C.3       9 UNK         0.0222 
     26 CB        -70.6154   28.1534  -73.5701 C.3       9 UNK        -0.1966 
     27 N         -72.5261   28.8847  -74.9096 N.am      9 UNK        -0.4218 
     28 C         -73.2654   29.5850  -75.7816 C.2       9 UNK         0.5020 
     29 O         -73.0035   30.7366  -76.1347 O.2       9 UNK        -0.5274 
     30 CA        -74.4901   28.8501  -76.3651 C.3       8 UNK         0.0270 
     31 CB        -75.2281   29.6704  -77.4436 C.3       8 UNK        -0.1976 
     32 N         -74.1653   27.5108  -76.8752 N.am      8 UNK        -0.4313 
     33 C         -73.2299   27.1895  -77.7878 C.2       8 UNK         0.5041 
     34 O         -72.4855   28.0058  -78.3323 O.2       8 UNK        -0.5577 
     35 CA        -73.0792   25.7016  -78.1627 C.3       7 UNK         0.0284 
     36 CB        -71.9229   25.0692  -77.3701 C.3       7 UNK        -0.1958 
     37 N         -74.2932   24.9133  -77.9465 N.am      7 UNK        -0.4454 
     38 C         -75.4416   25.0647  -78.6204 C.2       7 UNK         0.5089 
     39 O         -75.5702   25.8070  -79.5942 O.2       7 UNK        -0.5125 
     40 CA        -76.6634   24.2718  -78.1135 C.3       6 UNK         0.0408 
     41 CB        -76.9337   23.0729  -79.0366 C.3       6 UNK        -0.1791 
     42 N         -76.5824   23.8057  -76.7191 N.am      6 UNK        -0.4762 
     43 C         -76.3948   24.5838  -75.6394 C.2       6 UNK         0.5007 
     44 O         -76.2328   25.8023  -75.7098 O.2       6 UNK        -0.5032 
     45 CA        -76.4045   23.8735  -74.2719 C.3       5 UNK         0.0783 
     46 C46       -76.2394   24.8304  -73.0664 C.3       11 UNK        -0.0857 
     47 S47       -74.5301   25.4221  -72.8463 S.3       11 UNK        -0.2512 
     48 C48       -74.7112   26.3563  -71.2936 C.3       11 UNK         0.0225 
     49 N         -77.6593   23.1392  -74.1690 N.am      5 UNK        -0.4615 
     50 C         -77.7961   21.8367  -73.9134 C.2       4 UNK         0.5053 
     51 O         -76.8563   21.0723  -73.6949 O.2       4 UNK        -0.5105 
     52 CA        -79.2355   21.2934  -73.9337 C.3       4 UNK         0.0263 
     53 CB        -79.9267   21.5530  -72.5853 C.3       4 UNK        -0.1981 
     54 N         -80.0577   21.8485  -75.0173 N.am      4 UNK        -0.4224 
     55 C         -79.8003   21.7077  -76.3269 C.2       3 UNK         0.4895 
     56 O         -78.8145   21.1161  -76.7659 O.2       3 UNK        -0.5091 
     57 CA        -80.7995   22.3164  -77.3293 C.3       3 UNK         0.0250 
     58 CB        -81.5506   21.1965  -78.0682 C.3       3 UNK        -0.1996 
     59 N         -81.7870   23.2100  -76.7122 N.am      3 UNK        -0.4254 
     60 C         -81.6613   24.5161  -76.4332 C.2       2 UNK         0.5004 
     61 O         -82.5857   25.1463  -75.9182 O.2       2 UNK        -0.5226 
     62 CA        -80.3591   25.2664  -76.7956 C.3       2 UNK         0.0269 
     63 CB        -80.4359   25.8274  -78.2258 C.3       2 UNK        -0.1926 
     64 N         -80.1070   26.3765  -75.8751 N.am      2 UNK        -0.4687 
     65 C         -79.7791   26.2361  -74.5837 C.2       1 UNK         0.5165 
     66 O         -79.5928   25.1344  -74.0646 O.2       1 UNK        -0.5079 
     67 H67       -79.5657   30.6273  -76.9612 H         1 UNK         0.0900 
     68 H68       -80.6552   30.9187  -75.6025 H         1 UNK         0.0900 
     69 H69       -79.0015   31.5335  -75.5550 H         1 UNK         0.0900 
     70 H70       -80.9135   29.1083  -74.3012 H         1 UNK         0.2959 
     71 H71       -78.6133   27.5657  -73.4181 H         1 UNK         0.1079 
     72 H72       -80.1503   26.5223  -71.8249 H         1 UNK         0.0837 
     73 H73       -81.5454   27.1227  -72.6784 H         1 UNK         0.0837 
     74 H74       -79.3182   27.6095  -69.7145 H         1 UNK         0.0685 
     75 H75       -79.1681   29.3311  -69.4587 H         1 UNK         0.0685 
     76 H76       -77.2046   26.6487  -70.2011 H         1 UNK         0.1434 
     77 H77       -74.3741   28.6228  -72.7284 H         1 UNK         0.1329 
     78 H78       -78.0965   30.5338  -71.7901 H         1 UNK         0.1335 
     79 H79       -74.9900   30.6501  -73.8816 H         1 UNK         0.0680 
     80 H80       -76.6448   31.1742  -73.8496 H         1 UNK         0.0680 
     81 H81       -74.0981   32.3973  -70.2135 H         1 UNK         0.1032 
     82 H82       -74.3024   30.7557  -70.7200 H         1 UNK         0.1032 
     83 H83       -72.4426   32.7380  -72.1507 H         1 UNK         0.0461 
     84 H84       -70.4007   32.6717  -69.2441 H         1 UNK         0.3453 
     85 H85       -71.3174   33.6476  -70.3619 H         1 UNK         0.3453 
     86 H86       -73.1543   30.0519  -72.7774 H         1 UNK         0.2984 
     87 H87       -70.5904   29.5655  -75.1808 H         1 UNK         0.0554 
     88 H88       -69.6471   28.4372  -73.1550 H         1 UNK         0.0847 
     89 H89       -70.4465   27.2927  -74.2177 H         1 UNK         0.0847 
     90 H90       -71.2429   27.8315  -72.7377 H         1 UNK         0.0847 
     91 H91       -72.8116   27.9381  -74.7028 H         1 UNK         0.3141 
     92 H92       -75.1854   28.6987  -75.5374 H         1 UNK         0.0743 
     93 H93       -76.1128   29.1426  -77.8002 H         1 UNK         0.0784 
     94 H94       -75.5650   30.6270  -77.0424 H         1 UNK         0.0784 
     95 H95       -74.5897   29.8791  -78.3027 H         1 UNK         0.0784 
     96 H96       -74.7548   26.7673  -76.5062 H         1 UNK         0.3213 
     97 H97       -72.8344   25.6556  -79.2262 H         1 UNK         0.0855 
     98 H98       -72.1193   25.0695  -76.2971 H         1 UNK         0.0814 
     99 H99       -70.9942   25.6191  -77.5305 H         1 UNK         0.0814 
    100 H100      -71.7439   24.0395  -77.6803 H         1 UNK         0.0814 
    101 H101      -74.2856   24.2642  -77.1740 H         1 UNK         0.3105 
    102 H102      -77.5176   24.9473  -78.1763 H         1 UNK         0.0547 
    103 H103      -77.8759   22.5841  -78.7949 H         1 UNK         0.0837 
    104 H104      -76.1413   22.3265  -78.9705 H         1 UNK         0.0837 
    105 H105      -76.9985   23.3869  -80.0794 H         1 UNK         0.0837 
    106 H106      -76.7296   22.8156  -76.5713 H         1 UNK         0.3020 
    107 H107      -75.5656   23.1736  -74.2740 H         1 UNK         0.1245 
    108 H108      -76.5213   24.3141  -72.1472 H         1 UNK         0.0781 
    109 H109      -76.9160   25.6827  -73.1493 H         1 UNK         0.0781 
    110 H110      -73.7333   26.7346  -70.9922 H         1 UNK         0.0836 
    111 H111      -75.0330   25.6788  -70.5012 H         1 UNK         0.0836 
    112 H112      -78.4964   23.7098  -74.2780 H         1 UNK         0.3022 
    113 H113      -79.1760   20.2136  -74.0856 H         1 UNK         0.0747 
    114 H114      -80.9116   21.0872  -72.5472 H         1 UNK         0.0793 
    115 H115      -79.3428   21.1400  -71.7613 H         1 UNK         0.0793 
    116 H116      -80.0512   22.6200  -72.3940 H         1 UNK         0.0793 
    117 H117      -80.8838   22.3605  -74.7430 H         1 UNK         0.3047 
    118 H118      -80.2231   22.8629  -78.0762 H         1 UNK         0.0822 
    119 H119      -82.2191   21.6013  -78.8286 H         1 UNK         0.0807 
    120 H120      -82.1465   20.5887  -77.3860 H         1 UNK         0.0807 
    121 H121      -80.8553   20.5269  -78.5771 H         1 UNK         0.0807 
    122 H122      -82.6667   22.7736  -76.4755 H         1 UNK         0.2946 
    123 H123      -79.5068   24.5912  -76.7193 H         1 UNK         0.1144 
    124 H124      -79.5231   26.3595  -78.4947 H         1 UNK         0.0793 
    125 H125      -81.2709   26.5200  -78.3405 H         1 UNK         0.0793 
    126 H126      -80.5737   25.0325  -78.9592 H         1 UNK         0.0793 
    127 H127      -80.2710   27.3101  -76.2210 H         1 UNK         0.2896 
@<TRIPOS>BOND
     1    1    2 1    
     2    1   67 1    
     3    1   68 1    
     4    1   69 1    
     5    2    3 2    
     6    2    4 am   BACKBONE|DICT|INTERRES
     7    4    5 1    
     8    4   70 1    
     9    5    6 1    
    10    5   65 1    
    11    5   71 1    
    12    6    7 1    
    13    6   72 1    
    14    6   73 1    
    15    7    8 1    
    16    8    9 1    
    17    8   74 1    
    18    8   75 1    
    19    9   10 ar   
    20    9   14 ar   
    21   10   11 ar   
    22   10   76 1    
    23   11   12 ar   
    24   11   48 1    
    25   12   13 ar   
    26   12   77 1    
    27   13   14 ar   
    28   13   15 1    
    29   14   78 1    
    30   15   16 1    
    31   15   79 1    
    32   15   80 1    
    33   16   17 1    
    34   17   18 1    
    35   17   81 1    
    36   17   82 1    
    37   18   19 1    
    38   18   22 1    
    39   18   83 1    
    40   19   20 am   BACKBONE|DICT|INTERRES
    41   19   21 2    
    42   20   84 1    
    43   20   85 1    
    44   22   23 am   BACKBONE|DICT|INTERRES
    45   22   86 1    
    46   23   24 2    
    47   23   25 1    
    48   25   26 1    
    49   25   27 1    
    50   25   87 1    
    51   26   88 1    
    52   26   89 1    
    53   26   90 1    
    54   27   28 am   BACKBONE|DICT|INTERRES
    55   27   91 1    
    56   28   29 2    
    57   28   30 1    
    58   30   31 1    
    59   30   32 1    
    60   30   92 1    
    61   31   93 1    
    62   31   94 1    
    63   31   95 1    
    64   32   33 am   BACKBONE|DICT|INTERRES
    65   32   96 1    
    66   33   34 2    
    67   33   35 1    
    68   35   36 1    
    69   35   37 1    
    70   35   97 1    
    71   36   98 1    
    72   36   99 1    
    73   36  100 1    
    74   37   38 am   BACKBONE|DICT|INTERRES
    75   37  101 1    
    76   38   39 2    
    77   38   40 1    
    78   40   41 1    
    79   40   42 1    
    80   40  102 1    
    81   41  103 1    
    82   41  104 1    
    83   41  105 1    
    84   42   43 am   BACKBONE|DICT|INTERRES
    85   42  106 1    
    86   43   44 2    
    87   43   45 1    
    88   45   46 1    
    89   45   49 1    
    90   45  107 1    
    91   46   47 1    
    92   46  108 1    
    93   46  109 1    
    94   47   48 1    
    95   48  110 1    
    96   48  111 1    
    97   49   50 am   BACKBONE|DICT|INTERRES
    98   49  112 1    
    99   50   51 2    
   100   50   52 1    
   101   52   53 1    
   102   52   54 1    
   103   52  113 1    
   104   53  114 1    
   105   53  115 1    
   106   53  116 1    
   107   54   55 am   BACKBONE|DICT|INTERRES
   108   54  117 1    
   109   55   56 2    
   110   55   57 1    
   111   57   58 1    
   112   57   59 1    
   113   57  118 1    
   114   58  119 1    
   115   58  120 1    
   116   58  121 1    
   117   59   60 am   BACKBONE|DICT|INTERRES
   118   59  122 1    
   119   60   61 2    
   120   60   62 1    
   121   62   63 1    
   122   62   64 1    
   123   62  123 1    
   124   63  124 1    
   125   63  125 1    
   126   63  126 1    
   127   64   65 am   BACKBONE|DICT|INTERRES
   128   64  127 1    
   129   65   66 2    
@<TRIPOS>SUBSTRUCTURE
     1 UNK         1 GROUP             0       ****    0 ROOT    
