@<TRIPOS>MOLECULE
3R135
127   129    1
SMALL
USER_CHARGES


@<TRIPOS>ATOM
      1 CA        -82.3418   22.6103  -72.8740 C.3       0 UNK        -0.1998 
      2 C         -82.2935   23.9425  -73.6056 C.2       0 UNK         0.4909 
      3 O         -82.9393   24.0901  -74.6442 O.2       0 UNK        -0.5240 
      4 N         -81.5333   24.9135  -73.0765 N.am      1 UNK        -0.4739 
      5 CA        -81.3555   26.2519  -73.6528 C.3       1 UNK         0.0864 
      6 C6        -80.5083   27.1643  -72.7346 C.3       11 UNK        -0.0881 
      7 S7        -80.7190   28.9314  -73.1377 S.3       11 UNK        -0.2682 
      8 C8        -79.9307   29.7259  -71.7016 C.3       11 UNK         0.0289 
      9 C9        -78.4427   29.4166  -71.6352 C.ar      11 UNK        -0.0687 
     10 C10       -77.9618   28.4531  -70.7449 C.ar      11 UNK        -0.0823 
     11 C11       -76.5993   28.1422  -70.7020 C.ar      11 UNK        -0.0830 
     12 C12       -75.7135   28.8148  -71.5496 C.ar      11 UNK        -0.1021 
     13 C13       -76.1827   29.7883  -72.4375 C.ar      11 UNK        -0.0753 
     14 C14       -77.5478   30.0863  -72.4733 C.ar      11 UNK        -0.0933 
     15 C15       -75.2314   30.4922  -73.3919 C.3       11 UNK         0.0166 
     16 S16       -74.5164   31.9967  -72.6584 S.3       11 UNK        -0.2615 
     17 C17       -72.9963   31.3508  -71.8790 C.3       11 UNK        -0.0865 
     18 CA        -71.7444   31.5689  -72.7683 C.3       10 UNK         0.0862 
     19 C         -70.4556   31.1385  -72.0205 C.2       10 UNK         0.5551 
     20 N         -69.6681   32.0886  -71.5361 N.am      10 UNK        -0.7319 
     21 O         -70.1942   29.9518  -71.8359 O.2       10 UNK        -0.5018 
     22 N         -71.8778   30.8693  -74.0516 N.am      10 UNK        -0.4509 
     23 C         -71.1578   31.1131  -75.1516 C.2       10 UNK         0.4899 
     24 O         -70.3071   32.0007  -75.2342 O.2       10 UNK        -0.4839 
     25 CA        -71.4703   30.2150  -76.3663 C.3       9 UNK         0.0222 
     26 CB        -70.4131   30.3188  -77.4864 C.3       9 UNK        -0.1966 
     27 N         -71.7114   28.8142  -75.9929 N.am      9 UNK        -0.4218 
     28 C         -70.8432   27.9736  -75.4017 C.2       9 UNK         0.5020 
     29 O         -69.6817   28.2705  -75.1198 O.2       9 UNK        -0.5274 
     30 CA        -71.3461   26.5601  -75.0480 C.3       8 UNK         0.0270 
     31 CB        -71.5968   26.4518  -73.5343 C.3       8 UNK        -0.1976 
     32 N         -72.5604   26.1723  -75.7722 N.am      8 UNK        -0.4313 
     33 C         -72.6001   25.8948  -77.0857 C.2       8 UNK         0.5041 
     34 O         -71.5948   25.8465  -77.7959 O.2       8 UNK        -0.5577 
     35 CA        -73.9759   25.6508  -77.7378 C.3       7 UNK         0.0284 
     36 CB        -74.1536   24.1614  -78.0737 C.3       7 UNK        -0.1958 
     37 N         -75.1157   26.1054  -76.9357 N.am      7 UNK        -0.4454 
     38 C         -75.3683   27.3818  -76.6048 C.2       7 UNK         0.5089 
     39 O         -74.6695   28.3306  -76.9647 O.2       7 UNK        -0.5125 
     40 CA        -76.5561   27.6406  -75.6565 C.3       6 UNK         0.0408 
     41 CB        -77.8049   28.0047  -76.4657 C.3       6 UNK        -0.1791 
     42 N         -76.8581   26.5249  -74.7494 N.am      6 UNK        -0.4762 
     43 C         -75.9724   25.9930  -73.8915 C.2       6 UNK         0.5007 
     44 O         -74.8195   26.4124  -73.7793 O.2       6 UNK        -0.5032 
     45 CA        -76.3866   24.7381  -73.0897 C.3       5 UNK         0.0783 
     46 C46       -76.8171   25.0709  -71.6383 C.3       11 UNK        -0.0857 
     47 S47       -75.4222   25.6058  -70.5855 S.3       11 UNK        -0.2512 
     48 C48       -76.0920   27.0762  -69.7390 C.3       11 UNK         0.0225 
     49 N         -77.3792   23.8718  -73.7397 N.am      5 UNK        -0.4615 
     50 C         -77.3127   23.3425  -74.9696 C.2       4 UNK         0.5053 
     51 O         -76.4782   23.6613  -75.8163 O.2       4 UNK        -0.5105 
     52 CA        -78.3274   22.2394  -75.2979 C.3       4 UNK         0.0263 
     53 CB        -78.8907   21.5151  -74.0548 C.3       4 UNK        -0.1981 
     54 N         -79.4227   22.7745  -76.1040 N.am      4 UNK        -0.4224 
     55 C         -80.1057   22.0531  -77.0064 C.2       3 UNK         0.4895 
     56 O         -79.8275   20.8851  -77.2844 O.2       3 UNK        -0.5091 
     57 CA        -81.3183   22.6945  -77.7080 C.3       3 UNK         0.0250 
     58 CB        -82.6087   21.9319  -77.3592 C.3       3 UNK        -0.1996 
     59 N         -81.5045   24.1068  -77.3767 N.am      3 UNK        -0.4254 
     60 C         -80.9190   25.1223  -78.0266 C.2       2 UNK         0.5004 
     61 O         -80.1802   24.9765  -79.0005 O.2       2 UNK        -0.5226 
     62 CA        -81.1908   26.5446  -77.5006 C.3       2 UNK         0.0269 
     63 CB        -82.3238   27.2014  -78.3055 C.3       2 UNK        -0.1926 
     64 N         -81.5191   26.6126  -76.0724 N.am      2 UNK        -0.4687 
     65 C         -80.7546   26.1596  -75.0689 C.2       1 UNK         0.5165 
     66 O         -79.6468   25.6382  -75.2233 O.2       1 UNK        -0.5079 
     67 H67       -82.0431   21.8043  -73.5438 H         1 UNK         0.0900 
     68 H68       -81.6825   22.5953  -72.0064 H         1 UNK         0.0900 
     69 H69       -83.3568   22.4089  -72.5328 H         1 UNK         0.0900 
     70 H70       -81.0248   24.7318  -72.2237 H         1 UNK         0.2959 
     71 H71       -82.3561   26.6843  -73.7266 H         1 UNK         0.1079 
     72 H72       -79.4493   26.9046  -72.7851 H         1 UNK         0.0837 
     73 H73       -80.8085   27.0265  -71.6946 H         1 UNK         0.0837 
     74 H74       -80.0750   30.8050  -71.7711 H         1 UNK         0.0685 
     75 H75       -80.4354   29.4088  -70.7876 H         1 UNK         0.0685 
     76 H76       -78.6533   27.9335  -70.0957 H         1 UNK         0.1434 
     77 H77       -74.6637   28.5581  -71.5319 H         1 UNK         0.1329 
     78 H78       -77.9190   30.8287  -73.1667 H         1 UNK         0.1335 
     79 H79       -75.7652   30.7774  -74.2998 H         1 UNK         0.0680 
     80 H80       -74.4471   29.8057  -73.7119 H         1 UNK         0.0680 
     81 H81       -72.8744   31.8701  -70.9263 H         1 UNK         0.1032 
     82 H82       -73.1181   30.2964  -71.6283 H         1 UNK         0.1032 
     83 H83       -71.6740   32.6374  -72.9844 H         1 UNK         0.0461 
     84 H84       -69.8808   33.0640  -71.6777 H         1 UNK         0.3453 
     85 H85       -68.8355   31.8257  -71.0322 H         1 UNK         0.3453 
     86 H86       -72.5217   30.0952  -74.0677 H         1 UNK         0.2984 
     87 H87       -72.4135   30.5805  -76.7751 H         1 UNK         0.0554 
     88 H88       -70.3392   31.3408  -77.8601 H         1 UNK         0.0847 
     89 H89       -70.6693   29.6828  -78.3338 H         1 UNK         0.0847 
     90 H90       -69.4212   30.0297  -77.1377 H         1 UNK         0.0847 
     91 H91       -72.6410   28.4663  -76.2032 H         1 UNK         0.3141 
     92 H92       -70.5551   25.8551  -75.3125 H         1 UNK         0.0743 
     93 H93       -70.6811   26.6444  -72.9734 H         1 UNK         0.0784 
     94 H94       -72.3393   27.1749  -73.1944 H         1 UNK         0.0784 
     95 H95       -71.9453   25.4571  -73.2560 H         1 UNK         0.0784 
     96 H96       -73.4273   26.1904  -75.2419 H         1 UNK         0.3213 
     97 H97       -73.9903   26.2147  -78.6728 H         1 UNK         0.0855 
     98 H98       -74.1213   23.5407  -77.1775 H         1 UNK         0.0814 
     99 H99       -73.3620   23.8134  -78.7388 H         1 UNK         0.0814 
    100 H100      -75.1033   23.9760  -78.5759 H         1 UNK         0.0814 
    101 H101      -75.7166   25.3789  -76.5546 H         1 UNK         0.3105 
    102 H102      -76.2962   28.4969  -75.0360 H         1 UNK         0.0547 
    103 H103      -78.6395   28.2661  -75.8150 H         1 UNK         0.0837 
    104 H104      -77.6172   28.8627  -77.1125 H         1 UNK         0.0837 
    105 H105      -78.1081   27.1738  -77.1022 H         1 UNK         0.0837 
    106 H106      -77.7798   26.1036  -74.8304 H         1 UNK         0.3020 
    107 H107      -75.4826   24.1277  -73.0284 H         1 UNK         0.1245 
    108 H108      -77.2357   24.1838  -71.1604 H         1 UNK         0.0781 
    109 H109      -77.6182   25.8092  -71.6359 H         1 UNK         0.0781 
    110 H110      -75.3101   27.5070  -69.1122 H         1 UNK         0.0836 
    111 H111      -76.8840   26.7578  -69.0593 H         1 UNK         0.0836 
    112 H112      -78.1264   23.5492  -73.1447 H         1 UNK         0.3022 
    113 H113      -77.7749   21.5048  -75.8880 H         1 UNK         0.0747 
    114 H114      -79.4993   20.6579  -74.3437 H         1 UNK         0.0793 
    115 H115      -78.0875   21.1335  -73.4227 H         1 UNK         0.0793 
    116 H116      -79.5143   22.1685  -73.4457 H         1 UNK         0.0793 
    117 H117      -79.6497   23.7538  -75.9563 H         1 UNK         0.3047 
    118 H118      -81.1541   22.5974  -78.7834 H         1 UNK         0.0822 
    119 H119      -82.5422   20.8873  -77.6665 H         1 UNK         0.0807 
    120 H120      -83.4735   22.3613  -77.8653 H         1 UNK         0.0807 
    121 H121      -82.8077   21.9422  -76.2872 H         1 UNK         0.0807 
    122 H122      -82.0815   24.3084  -76.5660 H         1 UNK         0.2946 
    123 H123      -80.2851   27.1278  -77.6632 H         1 UNK         0.1144 
    124 H124      -82.4648   28.2432  -78.0168 H         1 UNK         0.0793 
    125 H125      -83.2723   26.6812  -78.1659 H         1 UNK         0.0793 
    126 H126      -82.1011   27.1917  -79.3736 H         1 UNK         0.0793 
    127 H127      -82.4231   27.0022  -75.8459 H         1 UNK         0.2896 
@<TRIPOS>BOND
     1    1    2 1    
     2    1   67 1    
     3    1   68 1    
     4    1   69 1    
     5    2    3 2    
     6    2    4 am   BACKBONE|DICT|INTERRES
     7    4    5 1    
     8    4   70 1    
     9    5    6 1    
    10    5   65 1    
    11    5   71 1    
    12    6    7 1    
    13    6   72 1    
    14    6   73 1    
    15    7    8 1    
    16    8    9 1    
    17    8   74 1    
    18    8   75 1    
    19    9   10 ar   
    20    9   14 ar   
    21   10   11 ar   
    22   10   76 1    
    23   11   12 ar   
    24   11   48 1    
    25   12   13 ar   
    26   12   77 1    
    27   13   14 ar   
    28   13   15 1    
    29   14   78 1    
    30   15   16 1    
    31   15   79 1    
    32   15   80 1    
    33   16   17 1    
    34   17   18 1    
    35   17   81 1    
    36   17   82 1    
    37   18   19 1    
    38   18   22 1    
    39   18   83 1    
    40   19   20 am   BACKBONE|DICT|INTERRES
    41   19   21 2    
    42   20   84 1    
    43   20   85 1    
    44   22   23 am   BACKBONE|DICT|INTERRES
    45   22   86 1    
    46   23   24 2    
    47   23   25 1    
    48   25   26 1    
    49   25   27 1    
    50   25   87 1    
    51   26   88 1    
    52   26   89 1    
    53   26   90 1    
    54   27   28 am   BACKBONE|DICT|INTERRES
    55   27   91 1    
    56   28   29 2    
    57   28   30 1    
    58   30   31 1    
    59   30   32 1    
    60   30   92 1    
    61   31   93 1    
    62   31   94 1    
    63   31   95 1    
    64   32   33 am   BACKBONE|DICT|INTERRES
    65   32   96 1    
    66   33   34 2    
    67   33   35 1    
    68   35   36 1    
    69   35   37 1    
    70   35   97 1    
    71   36   98 1    
    72   36   99 1    
    73   36  100 1    
    74   37   38 am   BACKBONE|DICT|INTERRES
    75   37  101 1    
    76   38   39 2    
    77   38   40 1    
    78   40   41 1    
    79   40   42 1    
    80   40  102 1    
    81   41  103 1    
    82   41  104 1    
    83   41  105 1    
    84   42   43 am   BACKBONE|DICT|INTERRES
    85   42  106 1    
    86   43   44 2    
    87   43   45 1    
    88   45   46 1    
    89   45   49 1    
    90   45  107 1    
    91   46   47 1    
    92   46  108 1    
    93   46  109 1    
    94   47   48 1    
    95   48  110 1    
    96   48  111 1    
    97   49   50 am   BACKBONE|DICT|INTERRES
    98   49  112 1    
    99   50   51 2    
   100   50   52 1    
   101   52   53 1    
   102   52   54 1    
   103   52  113 1    
   104   53  114 1    
   105   53  115 1    
   106   53  116 1    
   107   54   55 am   BACKBONE|DICT|INTERRES
   108   54  117 1    
   109   55   56 2    
   110   55   57 1    
   111   57   58 1    
   112   57   59 1    
   113   57  118 1    
   114   58  119 1    
   115   58  120 1    
   116   58  121 1    
   117   59   60 am   BACKBONE|DICT|INTERRES
   118   59  122 1    
   119   60   61 2    
   120   60   62 1    
   121   62   63 1    
   122   62   64 1    
   123   62  123 1    
   124   63  124 1    
   125   63  125 1    
   126   63  126 1    
   127   64   65 am   BACKBONE|DICT|INTERRES
   128   64  127 1    
   129   65   66 2    
@<TRIPOS>SUBSTRUCTURE
     1 UNK         1 GROUP             0       ****    0 ROOT    
