@<TRIPOS>MOLECULE
3R135
127   129    1
SMALL
USER_CHARGES


@<TRIPOS>ATOM
      1 CA        -83.0581   27.4226  -70.1633 C.3       0 UNK        -0.1998 
      2 C         -83.2476   27.4444  -71.6726 C.2       0 UNK         0.4909 
      3 O         -84.3338   27.1294  -72.1593 O.2       0 UNK        -0.5240 
      4 N         -82.1974   27.8158  -72.4159 N.am      1 UNK        -0.4739 
      5 CA        -82.1911   27.8826  -73.8826 C.3       1 UNK         0.0864 
      6 C6        -80.9946   28.7113  -74.4124 C.3       11 UNK        -0.0881 
      7 S7        -81.1048   30.4902  -74.0108 S.3       11 UNK        -0.2682 
      8 C8        -80.2489   30.6454  -72.4048 C.3       11 UNK         0.0289 
      9 C9        -78.8804   29.9764  -72.3766 C.ar      11 UNK        -0.0687 
     10 C10       -78.6376   28.9183  -71.4949 C.ar      11 UNK        -0.0823 
     11 C11       -77.3928   28.2832  -71.4616 C.ar      11 UNK        -0.0830 
     12 C12       -76.3778   28.7385  -72.3114 C.ar      11 UNK        -0.1021 
     13 C13       -76.6110   29.7822  -73.2113 C.ar      11 UNK        -0.0753 
     14 C14       -77.8610   30.4064  -73.2315 C.ar      11 UNK        -0.0933 
     15 C15       -75.5405   30.1734  -74.2180 C.3       11 UNK         0.0166 
     16 S16       -74.4412   31.4908  -73.6330 S.3       11 UNK        -0.2615 
     17 C17       -73.2725   31.5158  -75.0410 C.3       11 UNK        -0.0865 
     18 CA        -71.8370   30.9717  -74.7678 C.3       10 UNK         0.0862 
     19 C         -70.9078   31.9568  -73.9890 C.2       10 UNK         0.5551 
     20 N         -69.8253   31.4897  -73.3790 N.am      10 UNK        -0.7319 
     21 O         -71.1364   33.1643  -73.9747 O.2       10 UNK        -0.5018 
     22 N         -71.7902   29.5479  -74.3664 N.am      10 UNK        -0.4509 
     23 C         -71.9145   29.0415  -73.1296 C.2       10 UNK         0.4899 
     24 O         -72.1463   29.7160  -72.1263 O.2       10 UNK        -0.4839 
     25 CA        -71.6812   27.5299  -72.9632 C.3       9 UNK         0.0222 
     26 CB        -72.5264   26.9250  -71.8285 C.3       9 UNK        -0.1966 
     27 N         -71.9146   26.7587  -74.1903 N.am      9 UNK        -0.4218 
     28 C         -70.9430   26.1506  -74.8835 C.2       9 UNK         0.5020 
     29 O         -69.7424   26.3549  -74.6957 O.2       9 UNK        -0.5274 
     30 CA        -71.3484   25.0921  -75.9199 C.3       8 UNK         0.0270 
     31 CB        -71.4294   23.7119  -75.2467 C.3       8 UNK        -0.1976 
     32 N         -72.6035   25.3609  -76.6262 N.am      8 UNK        -0.4313 
     33 C         -72.6879   26.1762  -77.6868 C.2       8 UNK         0.5041 
     34 O         -71.7774   26.9240  -78.0469 O.2       8 UNK        -0.5577 
     35 CA        -73.9752   26.1057  -78.5255 C.3       7 UNK         0.0284 
     36 CB        -74.0756   24.7601  -79.2640 C.3       7 UNK        -0.1958 
     37 N         -75.1788   26.3125  -77.7275 N.am      7 UNK        -0.4454 
     38 C         -75.5786   27.5003  -77.2557 C.2       7 UNK         0.5089 
     39 O         -75.0167   28.5686  -77.4996 O.2       7 UNK        -0.5125 
     40 CA        -76.8061   27.4864  -76.3299 C.3       6 UNK         0.0408 
     41 CB        -78.1054   27.4747  -77.1486 C.3       6 UNK        -0.1791 
     42 N         -76.8073   26.3726  -75.3791 N.am      6 UNK        -0.4762 
     43 C         -75.8206   26.0669  -74.5211 C.2       6 UNK         0.5007 
     44 O         -74.7554   26.6786  -74.4365 O.2       6 UNK        -0.5032 
     45 CA        -76.0328   24.8090  -73.6622 C.3       5 UNK         0.0783 
     46 C46       -76.9701   25.0741  -72.4546 C.3       11 UNK        -0.0857 
     47 S47       -76.0597   25.8069  -71.0532 S.3       11 UNK        -0.2512 
     48 C48       -77.1741   27.1346  -70.4761 C.3       11 UNK         0.0225 
     49 N         -76.4836   23.6847  -74.4863 N.am      5 UNK        -0.4615 
     50 C         -75.7411   23.1000  -75.4377 C.2       4 UNK         0.5053 
     51 O         -74.5865   23.4289  -75.7087 O.2       4 UNK        -0.5105 
     52 CA        -76.4194   21.9915  -76.2568 C.3       4 UNK         0.0263 
     53 CB        -76.4635   20.6750  -75.4648 C.3       4 UNK        -0.1981 
     54 N         -77.7706   22.3621  -76.6815 N.am      4 UNK        -0.4224 
     55 C         -78.0444   23.3649  -77.5280 C.2       3 UNK         0.4895 
     56 O         -77.1855   24.0579  -78.0747 O.2       3 UNK        -0.5091 
     57 CA        -79.5307   23.6681  -77.7811 C.3       3 UNK         0.0250 
     58 CB        -80.0835   22.7581  -78.8898 C.3       3 UNK        -0.1996 
     59 N         -80.3887   23.5723  -76.5922 N.am      3 UNK        -0.4254 
     60 C         -80.2155   24.2676  -75.4593 C.2       2 UNK         0.5004 
     61 O         -79.2313   24.9709  -75.2229 O.2       2 UNK        -0.5226 
     62 CA        -81.3182   24.1608  -74.3946 C.3       2 UNK         0.0269 
     63 CB        -80.8775   23.2244  -73.2581 C.3       2 UNK        -0.1926 
     64 N         -81.6125   25.4849  -73.8417 N.am      2 UNK        -0.4687 
     65 C         -82.1804   26.4841  -74.5349 C.2       1 UNK         0.5165 
     66 O         -82.6661   26.3407  -75.6583 O.2       1 UNK        -0.5079 
     67 H67       -83.2287   26.4175  -69.7786 H         1 UNK         0.0900 
     68 H68       -83.7707   28.0953  -69.6867 H         1 UNK         0.0900 
     69 H69       -82.0544   27.7315  -69.8720 H         1 UNK         0.0900 
     70 H70       -81.3332   28.0726  -71.9652 H         1 UNK         0.2959 
     71 H71       -83.1145   28.3705  -74.2035 H         1 UNK         0.1079 
     72 H72       -80.0456   28.2939  -74.0720 H         1 UNK         0.0837 
     73 H73       -80.9575   28.6567  -75.5025 H         1 UNK         0.0837 
     74 H74       -80.1257   31.7054  -72.1791 H         1 UNK         0.0685 
     75 H75       -80.8951   30.2468  -71.6219 H         1 UNK         0.0685 
     76 H76       -79.4193   28.5886  -70.8250 H         1 UNK         0.1434 
     77 H77       -75.4077   28.2659  -72.2986 H         1 UNK         0.1329 
     78 H78       -78.0504   31.2107  -73.9293 H         1 UNK         0.1335 
     79 H79       -74.9349   29.3017  -74.4686 H         1 UNK         0.0680 
     80 H80       -76.0096   30.4997  -75.1476 H         1 UNK         0.0680 
     81 H81       -73.2237   32.5406  -75.4130 H         1 UNK         0.1032 
     82 H82       -73.7009   30.9505  -75.8704 H         1 UNK         0.1032 
     83 H83       -71.3636   30.9560  -75.7503 H         1 UNK         0.0461 
     84 H84       -69.2191   32.1288  -72.8895 H         1 UNK         0.3453 
     85 H85       -69.6198   30.5038  -73.3884 H         1 UNK         0.3453 
     86 H86       -71.5780   28.8967  -75.1085 H         1 UNK         0.2984 
     87 H87       -70.6388   27.4339  -72.6536 H         1 UNK         0.0554 
     88 H88       -72.3022   25.8679  -71.6864 H         1 UNK         0.0847 
     89 H89       -73.5895   27.0131  -72.0372 H         1 UNK         0.0847 
     90 H90       -72.3369   27.4238  -70.8772 H         1 UNK         0.0847 
     91 H91       -72.8910   26.5992  -74.4364 H         1 UNK         0.3141 
     92 H92       -70.5469   25.0437  -76.6607 H         1 UNK         0.0743 
     93 H93       -72.1940   23.6872  -74.4690 H         1 UNK         0.0784 
     94 H94       -71.6611   22.9292  -75.9693 H         1 UNK         0.0784 
     95 H95       -70.4802   23.4493  -74.7774 H         1 UNK         0.0784 
     96 H96       -73.3993   24.7773  -76.3757 H         1 UNK         0.3213 
     97 H97       -73.9241   26.8958  -79.2782 H         1 UNK         0.0855 
     98 H98       -74.1821   23.9228  -78.5729 H         1 UNK         0.0814 
     99 H99       -73.1853   24.5770  -79.8671 H         1 UNK         0.0814 
    100 H100      -74.9329   24.7432  -79.9373 H         1 UNK         0.0814 
    101 H101      -75.7409   25.4943  -77.5169 H         1 UNK         0.3105 
    102 H102      -76.8029   28.4021  -75.7451 H         1 UNK         0.0547 
    103 H103      -78.1649   28.3507  -77.7956 H         1 UNK         0.0837 
    104 H104      -78.1711   26.5944  -77.7867 H         1 UNK         0.0837 
    105 H105      -78.9831   27.4868  -76.5030 H         1 UNK         0.0837 
    106 H106      -77.6511   25.7994  -75.3607 H         1 UNK         0.3020 
    107 H107      -75.0511   24.5226  -73.2760 H         1 UNK         0.1245 
    108 H108      -77.3927   24.1354  -72.0933 H         1 UNK         0.0781 
    109 H109      -77.8235   25.6966  -72.7326 H         1 UNK         0.0781 
    110 H110      -76.7619   27.5509  -69.5562 H         1 UNK         0.0836 
    111 H111      -78.1280   26.6794  -70.2049 H         1 UNK         0.0836 
    112 H112      -77.4494   23.4099  -74.3861 H         1 UNK         0.3022 
    113 H113      -75.8184   21.8292  -77.1544 H         1 UNK         0.0747 
    114 H114      -76.8647   19.8619  -76.0701 H         1 UNK         0.0793 
    115 H115      -75.4624   20.3776  -75.1491 H         1 UNK         0.0793 
    116 H116      -77.0767   20.7595  -74.5667 H         1 UNK         0.0793 
    117 H117      -78.5407   21.8461  -76.2819 H         1 UNK         0.3047 
    118 H118      -79.5920   24.6992  -78.1339 H         1 UNK         0.0822 
    119 H119      -81.0981   23.0430  -79.1689 H         1 UNK         0.0807 
    120 H120      -80.0996   21.7110  -78.5850 H         1 UNK         0.0807 
    121 H121      -79.4722   22.8258  -79.7912 H         1 UNK         0.0807 
    122 H122      -81.2209   23.0081  -76.6896 H         1 UNK         0.2946 
    123 H123      -82.2283   23.7654  -74.8514 H         1 UNK         0.1144 
    124 H124      -80.6676   22.2227  -73.6355 H         1 UNK         0.0793 
    125 H125      -81.6558   23.1271  -72.5008 H         1 UNK         0.0793 
    126 H126      -79.9733   23.5838  -72.7649 H         1 UNK         0.0793 
    127 H127      -81.2262   25.6955  -72.9340 H         1 UNK         0.2896 
@<TRIPOS>BOND
     1    1    2 1    
     2    1   67 1    
     3    1   68 1    
     4    1   69 1    
     5    2    3 2    
     6    2    4 am   BACKBONE|DICT|INTERRES
     7    4    5 1    
     8    4   70 1    
     9    5    6 1    
    10    5   65 1    
    11    5   71 1    
    12    6    7 1    
    13    6   72 1    
    14    6   73 1    
    15    7    8 1    
    16    8    9 1    
    17    8   74 1    
    18    8   75 1    
    19    9   10 ar   
    20    9   14 ar   
    21   10   11 ar   
    22   10   76 1    
    23   11   12 ar   
    24   11   48 1    
    25   12   13 ar   
    26   12   77 1    
    27   13   14 ar   
    28   13   15 1    
    29   14   78 1    
    30   15   16 1    
    31   15   79 1    
    32   15   80 1    
    33   16   17 1    
    34   17   18 1    
    35   17   81 1    
    36   17   82 1    
    37   18   19 1    
    38   18   22 1    
    39   18   83 1    
    40   19   20 am   BACKBONE|DICT|INTERRES
    41   19   21 2    
    42   20   84 1    
    43   20   85 1    
    44   22   23 am   BACKBONE|DICT|INTERRES
    45   22   86 1    
    46   23   24 2    
    47   23   25 1    
    48   25   26 1    
    49   25   27 1    
    50   25   87 1    
    51   26   88 1    
    52   26   89 1    
    53   26   90 1    
    54   27   28 am   BACKBONE|DICT|INTERRES
    55   27   91 1    
    56   28   29 2    
    57   28   30 1    
    58   30   31 1    
    59   30   32 1    
    60   30   92 1    
    61   31   93 1    
    62   31   94 1    
    63   31   95 1    
    64   32   33 am   BACKBONE|DICT|INTERRES
    65   32   96 1    
    66   33   34 2    
    67   33   35 1    
    68   35   36 1    
    69   35   37 1    
    70   35   97 1    
    71   36   98 1    
    72   36   99 1    
    73   36  100 1    
    74   37   38 am   BACKBONE|DICT|INTERRES
    75   37  101 1    
    76   38   39 2    
    77   38   40 1    
    78   40   41 1    
    79   40   42 1    
    80   40  102 1    
    81   41  103 1    
    82   41  104 1    
    83   41  105 1    
    84   42   43 am   BACKBONE|DICT|INTERRES
    85   42  106 1    
    86   43   44 2    
    87   43   45 1    
    88   45   46 1    
    89   45   49 1    
    90   45  107 1    
    91   46   47 1    
    92   46  108 1    
    93   46  109 1    
    94   47   48 1    
    95   48  110 1    
    96   48  111 1    
    97   49   50 am   BACKBONE|DICT|INTERRES
    98   49  112 1    
    99   50   51 2    
   100   50   52 1    
   101   52   53 1    
   102   52   54 1    
   103   52  113 1    
   104   53  114 1    
   105   53  115 1    
   106   53  116 1    
   107   54   55 am   BACKBONE|DICT|INTERRES
   108   54  117 1    
   109   55   56 2    
   110   55   57 1    
   111   57   58 1    
   112   57   59 1    
   113   57  118 1    
   114   58  119 1    
   115   58  120 1    
   116   58  121 1    
   117   59   60 am   BACKBONE|DICT|INTERRES
   118   59  122 1    
   119   60   61 2    
   120   60   62 1    
   121   62   63 1    
   122   62   64 1    
   123   62  123 1    
   124   63  124 1    
   125   63  125 1    
   126   63  126 1    
   127   64   65 am   BACKBONE|DICT|INTERRES
   128   64  127 1    
   129   65   66 2    
@<TRIPOS>SUBSTRUCTURE
     1 UNK         1 GROUP             0       ****    0 ROOT    
