@<TRIPOS>MOLECULE
3R135
127   129    1
SMALL
USER_CHARGES


@<TRIPOS>ATOM
      1 CA        -82.4431   23.6259  -70.6822 C.3       0 UNK        -0.1998 
      2 C         -82.5876   24.6798  -71.7699 C.2       0 UNK         0.4909 
      3 O         -83.6690   24.8267  -72.3402 O.2       0 UNK        -0.5240 
      4 N         -81.5073   25.4185  -72.0554 N.am      1 UNK        -0.4739 
      5 CA        -81.4329   26.4177  -73.1261 C.3       1 UNK         0.0864 
      6 C6        -80.1875   27.3168  -72.9509 C.3       11 UNK        -0.0881 
      7 S7        -80.3322   28.9192  -73.8091 S.3       11 UNK        -0.2682 
      8 C8        -79.4314   30.0271  -72.6759 C.3       11 UNK         0.0289 
      9 C9        -77.9633   29.6423  -72.5468 C.ar      11 UNK        -0.0687 
     10 C10       -77.5387   28.8328  -71.4889 C.ar      11 UNK        -0.0823 
     11 C11       -76.1985   28.4541  -71.3744 C.ar      11 UNK        -0.0830 
     12 C12       -75.2701   28.9253  -72.3068 C.ar      11 UNK        -0.1021 
     13 C13       -75.6795   29.7429  -73.3647 C.ar      11 UNK        -0.0753 
     14 C14       -77.0282   30.0942  -73.4825 C.ar      11 UNK        -0.0933 
     15 C15       -74.6717   30.2169  -74.4012 C.3       11 UNK         0.0166 
     16 S16       -74.2834   31.9857  -74.2173 S.3       11 UNK        -0.2615 
     17 C17       -73.2433   31.9842  -72.7156 C.3       11 UNK        -0.0865 
     18 CA        -71.7822   32.4468  -72.9916 C.3       10 UNK         0.0862 
     19 C         -70.9686   32.6716  -71.6788 C.2       10 UNK         0.5551 
     20 N         -69.6612   32.4408  -71.6643 N.am      10 UNK        -0.7319 
     21 O         -71.5201   33.0948  -70.6655 O.2       10 UNK        -0.5018 
     22 N         -71.0936   31.6358  -74.0162 N.am      10 UNK        -0.4509 
     23 C         -70.7943   30.3340  -73.9237 C.2       10 UNK         0.4899 
     24 O         -71.0553   29.6285  -72.9466 O.2       10 UNK        -0.4839 
     25 CA        -70.0255   29.7352  -75.1148 C.3       9 UNK         0.0222 
     26 CB        -68.5121   29.9409  -74.9349 C.3       9 UNK        -0.1966 
     27 N         -70.2992   28.3041  -75.2562 N.am      9 UNK        -0.4218 
     28 C         -71.4425   27.7992  -75.7355 C.2       9 UNK         0.5020 
     29 O         -72.3339   28.4890  -76.2364 O.2       9 UNK        -0.5274 
     30 CA        -71.6054   26.2733  -75.6171 C.3       8 UNK         0.0270 
     31 CB        -71.6337   25.8344  -74.1406 C.3       8 UNK        -0.1976 
     32 N         -72.8411   25.8295  -76.2640 N.am      8 UNK        -0.4313 
     33 C         -72.9496   25.4982  -77.5586 C.2       8 UNK         0.5041 
     34 O         -71.9887   25.4518  -78.3294 O.2       8 UNK        -0.5577 
     35 CA        -74.3478   25.1379  -78.1005 C.3       7 UNK         0.0284 
     36 CB        -74.4645   23.6217  -78.3280 C.3       7 UNK        -0.1958 
     37 N         -75.4376   25.5760  -77.2265 N.am      7 UNK        -0.4454 
     38 C         -75.8830   26.8398  -77.1515 C.2       7 UNK         0.5089 
     39 O         -75.4900   27.7428  -77.8901 O.2       7 UNK        -0.5125 
     40 CA        -76.9494   27.1643  -76.0846 C.3       6 UNK         0.0408 
     41 CB        -78.3282   27.2679  -76.7480 C.3       6 UNK        -0.1791 
     42 N         -77.0331   26.2056  -74.9789 N.am      6 UNK        -0.4762 
     43 C         -76.0309   25.8719  -74.1509 C.2       6 UNK         0.5007 
     44 O         -74.9003   26.3477  -74.2323 O.2       6 UNK        -0.5032 
     45 CA        -76.3075   24.7331  -73.1424 C.3       5 UNK         0.0783 
     46 C46       -76.6697   25.2592  -71.7298 C.3       11 UNK        -0.0857 
     47 S47       -75.2096   25.8953  -70.8324 S.3       11 UNK        -0.2512 
     48 C48       -75.7601   27.5328  -70.2435 C.3       11 UNK         0.0225 
     49 N         -77.3070   23.7758  -73.6409 N.am      5 UNK        -0.4615 
     50 C         -77.1589   23.0303  -74.7463 C.2       4 UNK         0.5053 
     51 O         -76.1527   23.0656  -75.4543 O.2       4 UNK        -0.5105 
     52 CA        -78.3390   22.1417  -75.1633 C.3       4 UNK         0.0263 
     53 CB        -79.2523   21.7304  -73.9896 C.3       4 UNK        -0.1981 
     54 N         -79.1291   22.8530  -76.1668 N.am      4 UNK        -0.4224 
     55 C         -78.9294   22.7930  -77.4933 C.2       3 UNK         0.4895 
     56 O         -78.0705   22.0844  -78.0196 O.2       3 UNK        -0.5091 
     57 CA        -79.8504   23.6439  -78.3909 C.3       3 UNK         0.0250 
     58 CB        -80.2297   22.9135  -79.6930 C.3       3 UNK        -0.1996 
     59 N         -81.0724   24.0213  -77.6807 N.am      3 UNK        -0.4254 
     60 C         -81.5681   25.2591  -77.5700 C.2       2 UNK         0.5004 
     61 O         -81.1133   26.2429  -78.1536 O.2       2 UNK        -0.5226 
     62 CA        -82.7734   25.4382  -76.6272 C.3       2 UNK         0.0269 
     63 CB        -83.5437   24.1268  -76.3467 C.3       2 UNK        -0.1926 
     64 N         -82.4137   26.0797  -75.3545 N.am      2 UNK        -0.4687 
     65 C         -81.4514   25.7077  -74.4953 C.2       1 UNK         0.5165 
     66 O         -80.6163   24.8258  -74.7189 O.2       1 UNK        -0.5079 
     67 H67       -83.1570   23.8136  -69.8807 H         1 UNK         0.0900 
     68 H68       -82.6423   22.6360  -71.0918 H         1 UNK         0.0900 
     69 H69       -81.4426   23.6189  -70.2503 H         1 UNK         0.0900 
     70 H70       -80.6457   25.2384  -71.5620 H         1 UNK         0.2959 
     71 H71       -82.3239   27.0443  -73.0400 H         1 UNK         0.1079 
     72 H72       -80.0569   27.5264  -71.8892 H         1 UNK         0.0837 
     73 H73       -79.2740   26.8155  -73.2733 H         1 UNK         0.0837 
     74 H74       -79.9172   30.0216  -71.6989 H         1 UNK         0.0685 
     75 H75       -79.5105   31.0498  -73.0475 H         1 UNK         0.0685 
     76 H76       -78.2566   28.4843  -70.7598 H         1 UNK         0.1434 
     77 H77       -74.2330   28.6284  -72.2254 H         1 UNK         0.1329 
     78 H78       -77.3496   30.7171  -74.3060 H         1 UNK         0.1335 
     79 H79       -73.7523   29.6347  -74.3357 H         1 UNK         0.0680 
     80 H80       -75.0707   30.0423  -75.4014 H         1 UNK         0.0680 
     81 H81       -73.2492   30.9985  -72.2493 H         1 UNK         0.1032 
     82 H82       -73.7257   32.6505  -71.9983 H         1 UNK         0.1032 
     83 H83       -71.8496   33.4437  -73.4287 H         1 UNK         0.0461 
     84 H84       -69.1404   32.5995  -70.8162 H         1 UNK         0.3453 
     85 H85       -69.1939   32.1041  -72.4901 H         1 UNK         0.3453 
     86 H86       -70.8219   32.1367  -74.8500 H         1 UNK         0.2984 
     87 H87       -70.3398   30.2425  -76.0297 H         1 UNK         0.0554 
     88 H88       -68.2647   31.0014  -74.8725 H         1 UNK         0.0847 
     89 H89       -67.9527   29.5309  -75.7761 H         1 UNK         0.0847 
     90 H90       -68.1443   29.4668  -74.0238 H         1 UNK         0.0847 
     91 H91       -69.6344   27.6753  -74.8296 H         1 UNK         0.3141 
     92 H92       -70.7505   25.7981  -76.1029 H         1 UNK         0.0743 
     93 H93       -70.6676   25.9940  -73.6610 H         1 UNK         0.0784 
     94 H94       -72.3730   26.3937  -73.5656 H         1 UNK         0.0784 
     95 H95       -71.8676   24.7740  -74.0439 H         1 UNK         0.0784 
     96 H96       -73.6856   25.9349  -75.7080 H         1 UNK         0.3213 
     97 H97       -74.4594   25.6327  -79.0679 H         1 UNK         0.0855 
     98 H98       -74.3055   23.0622  -77.4056 H         1 UNK         0.0814 
     99 H99       -73.7208   23.2777  -79.0480 H         1 UNK         0.0814 
    100 H100      -75.4454   23.3502  -78.7193 H         1 UNK         0.0814 
    101 H101      -75.8053   24.8846  -76.5820 H         1 UNK         0.3105 
    102 H102      -76.6987   28.1353  -75.6560 H         1 UNK         0.0547 
    103 H103      -79.1004   27.5547  -76.0369 H         1 UNK         0.0837 
    104 H104      -78.6226   26.3188  -77.1936 H         1 UNK         0.0837 
    105 H105      -78.3291   28.0152  -77.5425 H         1 UNK         0.0837 
    106 H106      -77.9162   25.7297  -74.8640 H         1 UNK         0.3020 
    107 H107      -75.3733   24.1719  -73.0587 H         1 UNK         0.1245 
    108 H108      -77.0731   24.4468  -71.1233 H         1 UNK         0.0781 
    109 H109      -77.4583   26.0101  -71.7788 H         1 UNK         0.0781 
    110 H110      -74.9406   28.0038  -69.6990 H         1 UNK         0.0836 
    111 H111      -76.5647   27.3940  -69.5197 H         1 UNK         0.0836 
    112 H112      -78.1685   23.6996  -73.1209 H         1 UNK         0.3022 
    113 H113      -77.9219   21.2293  -75.5951 H         1 UNK         0.0747 
    114 H114      -80.0065   21.0160  -74.3200 H         1 UNK         0.0793 
    115 H115      -78.6799   21.2452  -73.1976 H         1 UNK         0.0793 
    116 H116      -79.7802   22.5766  -73.5493 H         1 UNK         0.0793 
    117 H117      -79.7985   23.5268  -75.7999 H         1 UNK         0.3047 
    118 H118      -79.2793   24.5358  -78.6555 H         1 UNK         0.0822 
    119 H119      -80.8699   23.5331  -80.3212 H         1 UNK         0.0807 
    120 H120      -80.7583   21.9811  -79.4916 H         1 UNK         0.0807 
    121 H121      -79.3441   22.6685  -80.2808 H         1 UNK         0.0807 
    122 H122      -81.5245   23.2833  -77.1589 H         1 UNK         0.2946 
    123 H123      -83.4562   26.1169  -77.1414 H         1 UNK         0.1144 
    124 H124      -82.9617   23.4205  -75.7533 H         1 UNK         0.0793 
    125 H125      -83.8333   23.6298  -77.2739 H         1 UNK         0.0793 
    126 H126      -84.4627   24.3287  -75.7959 H         1 UNK         0.0793 
    127 H127      -83.0113   26.8483  -75.0837 H         1 UNK         0.2896 
@<TRIPOS>BOND
     1    1    2 1    
     2    1   67 1    
     3    1   68 1    
     4    1   69 1    
     5    2    3 2    
     6    2    4 am   BACKBONE|DICT|INTERRES
     7    4    5 1    
     8    4   70 1    
     9    5    6 1    
    10    5   65 1    
    11    5   71 1    
    12    6    7 1    
    13    6   72 1    
    14    6   73 1    
    15    7    8 1    
    16    8    9 1    
    17    8   74 1    
    18    8   75 1    
    19    9   10 ar   
    20    9   14 ar   
    21   10   11 ar   
    22   10   76 1    
    23   11   12 ar   
    24   11   48 1    
    25   12   13 ar   
    26   12   77 1    
    27   13   14 ar   
    28   13   15 1    
    29   14   78 1    
    30   15   16 1    
    31   15   79 1    
    32   15   80 1    
    33   16   17 1    
    34   17   18 1    
    35   17   81 1    
    36   17   82 1    
    37   18   19 1    
    38   18   22 1    
    39   18   83 1    
    40   19   20 am   BACKBONE|DICT|INTERRES
    41   19   21 2    
    42   20   84 1    
    43   20   85 1    
    44   22   23 am   BACKBONE|DICT|INTERRES
    45   22   86 1    
    46   23   24 2    
    47   23   25 1    
    48   25   26 1    
    49   25   27 1    
    50   25   87 1    
    51   26   88 1    
    52   26   89 1    
    53   26   90 1    
    54   27   28 am   BACKBONE|DICT|INTERRES
    55   27   91 1    
    56   28   29 2    
    57   28   30 1    
    58   30   31 1    
    59   30   32 1    
    60   30   92 1    
    61   31   93 1    
    62   31   94 1    
    63   31   95 1    
    64   32   33 am   BACKBONE|DICT|INTERRES
    65   32   96 1    
    66   33   34 2    
    67   33   35 1    
    68   35   36 1    
    69   35   37 1    
    70   35   97 1    
    71   36   98 1    
    72   36   99 1    
    73   36  100 1    
    74   37   38 am   BACKBONE|DICT|INTERRES
    75   37  101 1    
    76   38   39 2    
    77   38   40 1    
    78   40   41 1    
    79   40   42 1    
    80   40  102 1    
    81   41  103 1    
    82   41  104 1    
    83   41  105 1    
    84   42   43 am   BACKBONE|DICT|INTERRES
    85   42  106 1    
    86   43   44 2    
    87   43   45 1    
    88   45   46 1    
    89   45   49 1    
    90   45  107 1    
    91   46   47 1    
    92   46  108 1    
    93   46  109 1    
    94   47   48 1    
    95   48  110 1    
    96   48  111 1    
    97   49   50 am   BACKBONE|DICT|INTERRES
    98   49  112 1    
    99   50   51 2    
   100   50   52 1    
   101   52   53 1    
   102   52   54 1    
   103   52  113 1    
   104   53  114 1    
   105   53  115 1    
   106   53  116 1    
   107   54   55 am   BACKBONE|DICT|INTERRES
   108   54  117 1    
   109   55   56 2    
   110   55   57 1    
   111   57   58 1    
   112   57   59 1    
   113   57  118 1    
   114   58  119 1    
   115   58  120 1    
   116   58  121 1    
   117   59   60 am   BACKBONE|DICT|INTERRES
   118   59  122 1    
   119   60   61 2    
   120   60   62 1    
   121   62   63 1    
   122   62   64 1    
   123   62  123 1    
   124   63  124 1    
   125   63  125 1    
   126   63  126 1    
   127   64   65 am   BACKBONE|DICT|INTERRES
   128   64  127 1    
   129   65   66 2    
@<TRIPOS>SUBSTRUCTURE
     1 UNK         1 GROUP             0       ****    0 ROOT    
