@<TRIPOS>MOLECULE
3R135
127   129    1
SMALL
USER_CHARGES


@<TRIPOS>ATOM
      1 CA        -82.6074   29.2988  -74.7520 C.3       0 UNK        -0.1998 
      2 C         -83.5241   28.2959  -74.0548 C.2       0 UNK         0.4909 
      3 O         -84.7422   28.4028  -74.1808 O.2       0 UNK        -0.5240 
      4 N         -82.9993   27.3088  -73.3134 N.am      1 UNK        -0.4739 
      5 CA        -81.5715   27.0381  -73.0878 C.3       1 UNK         0.0864 
      6 C6        -81.3127   26.3634  -71.7183 C.3       11 UNK        -0.0881 
      7 S7        -81.6996   27.5051  -70.3478 S.3       11 UNK        -0.2682 
      8 C8        -80.0579   27.7890  -69.5935 C.3       11 UNK         0.0289 
      9 C9        -79.0049   28.3719  -70.5372 C.ar      11 UNK        -0.0687 
     10 C10       -79.3212   29.3739  -71.4629 C.ar      11 UNK        -0.0823 
     11 C11       -78.3457   29.8921  -72.3222 C.ar      11 UNK        -0.0830 
     12 C12       -77.0276   29.4392  -72.2073 C.ar      11 UNK        -0.1021 
     13 C13       -76.6928   28.4479  -71.2824 C.ar      11 UNK        -0.0753 
     14 C14       -77.6851   27.9159  -70.4544 C.ar      11 UNK        -0.0933 
     15 C15       -75.2614   27.9444  -71.1955 C.3       11 UNK         0.0166 
     16 S16       -74.1840   29.1512  -70.3705 S.3       11 UNK        -0.2615 
     17 C17       -72.5609   28.3289  -70.5160 C.3       11 UNK        -0.0865 
     18 CA        -71.6937   28.9360  -71.6518 C.3       10 UNK         0.0862 
     19 C         -70.2021   28.4975  -71.5393 C.2       10 UNK         0.5551 
     20 N         -69.5594   27.9975  -72.5882 N.am      10 UNK        -0.7319 
     21 O         -69.6055   28.6257  -70.4729 O.2       10 UNK        -0.5018 
     22 N         -72.2930   28.6942  -72.9751 N.am      10 UNK        -0.4509 
     23 C         -72.1827   29.5130  -74.0276 C.2       10 UNK         0.4899 
     24 O         -71.6271   30.6121  -73.9869 O.2       10 UNK        -0.4839 
     25 CA        -72.7860   28.9976  -75.3501 C.3       9 UNK         0.0222 
     26 CB        -72.3377   29.8193  -76.5764 C.3       9 UNK        -0.1966 
     27 N         -72.5512   27.5657  -75.5842 N.am      9 UNK        -0.4218 
     28 C         -71.3678   26.9341  -75.6293 C.2       9 UNK         0.5020 
     29 O         -70.2854   27.4770  -75.4053 O.2       9 UNK        -0.5274 
     30 CA        -71.3956   25.4424  -75.9925 C.3       8 UNK         0.0270 
     31 CB        -71.9118   24.5808  -74.8279 C.3       8 UNK        -0.1976 
     32 N         -72.1836   25.1902  -77.2009 N.am      8 UNK        -0.4313 
     33 C         -71.7710   25.4636  -78.4450 C.2       8 UNK         0.5041 
     34 O         -70.6689   25.9463  -78.7087 O.2       8 UNK        -0.5577 
     35 CA        -72.7314   25.1309  -79.6017 C.3       7 UNK         0.0284 
     36 CB        -72.9036   23.6072  -79.7704 C.3       7 UNK        -0.1958 
     37 N         -74.0286   25.8193  -79.5403 N.am      7 UNK        -0.4454 
     38 C         -75.0003   25.6835  -78.6298 C.2       7 UNK         0.5089 
     39 O         -74.9356   24.9328  -77.6525 O.2       7 UNK        -0.5125 
     40 CA        -76.2766   26.5013  -78.8786 C.3       6 UNK         0.0408 
     41 CB        -77.3038   25.6629  -79.6548 C.3       6 UNK        -0.1791 
     42 N         -76.8562   26.9038  -77.6009 N.am      6 UNK        -0.4762 
     43 C         -76.4990   27.9999  -76.9178 C.2       6 UNK         0.5007 
     44 O         -75.7649   28.8785  -77.3703 O.2       6 UNK        -0.5032 
     45 CA        -77.0183   28.1074  -75.4694 C.3       5 UNK         0.0783 
     46 C46       -78.3256   28.9437  -75.3783 C.3       11 UNK        -0.0857 
     47 S47       -77.9750   30.6980  -75.0120 S.3       11 UNK        -0.2512 
     48 C48       -78.7340   30.9416  -73.3630 C.3       11 UNK         0.0225 
     49 N         -77.1528   26.7871  -74.8420 N.am      5 UNK        -0.4615 
     50 C         -76.1158   26.0145  -74.4920 C.2       4 UNK         0.5053 
     51 O         -74.9452   26.3708  -74.6228 O.2       4 UNK        -0.5105 
     52 CA        -76.3997   24.6275  -73.8968 C.3       4 UNK         0.0263 
     53 CB        -76.3633   24.6803  -72.3616 C.3       4 UNK        -0.1981 
     54 N         -77.6768   24.0491  -74.3305 N.am      4 UNK        -0.4224 
     55 C         -77.8287   22.7778  -74.7344 C.2       3 UNK         0.4895 
     56 O         -76.8969   21.9782  -74.8353 O.2       3 UNK        -0.5091 
     57 CA        -79.2523   22.2753  -75.0525 C.3       3 UNK         0.0250 
     58 CB        -79.7849   21.4178  -73.8922 C.3       3 UNK        -0.1996 
     59 N         -80.2206   23.3349  -75.3373 N.am      3 UNK        -0.4254 
     60 C         -80.2239   24.0922  -76.4414 C.2       2 UNK         0.5004 
     61 O         -79.4365   23.9430  -77.3748 O.2       2 UNK        -0.5226 
     62 CA        -81.2592   25.2316  -76.5092 C.3       2 UNK         0.0269 
     63 CB        -82.4855   24.7896  -77.3237 C.3       2 UNK        -0.1926 
     64 N         -81.7124   25.7789  -75.2196 N.am      2 UNK        -0.4687 
     65 C         -80.9243   26.2421  -74.2369 C.2       1 UNK         0.5165 
     66 O         -79.7054   26.0854  -74.2249 O.2       1 UNK        -0.5079 
     67 H67       -81.8728   28.8006  -75.3833 H         1 UNK         0.0900 
     68 H68       -82.0867   29.9155  -74.0204 H         1 UNK         0.0900 
     69 H69       -83.1883   29.9645  -75.3901 H         1 UNK         0.0900 
     70 H70       -83.6331   26.6770  -72.8443 H         1 UNK         0.2959 
     71 H71       -81.0367   27.9870  -73.0784 H         1 UNK         0.1079 
     72 H72       -81.9165   25.4609  -71.6090 H         1 UNK         0.0837 
     73 H73       -80.2726   26.0436  -71.6233 H         1 UNK         0.0837 
     74 H74       -80.1781   28.4701  -68.7502 H         1 UNK         0.0685 
     75 H75       -79.7108   26.8426  -69.1757 H         1 UNK         0.0685 
     76 H76       -80.3358   29.7431  -71.5210 H         1 UNK         0.1434 
     77 H77       -76.2575   29.8515  -72.8440 H         1 UNK         0.1329 
     78 H78       -77.4257   27.1492  -69.7372 H         1 UNK         0.1335 
     79 H79       -75.2188   27.0011  -70.6498 H         1 UNK         0.0680 
     80 H80       -74.8875   27.7453  -72.2000 H         1 UNK         0.0680 
     81 H81       -72.0660   28.4460  -69.5500 H         1 UNK         0.1032 
     82 H82       -72.6881   27.2539  -70.6554 H         1 UNK         0.1032 
     83 H83       -71.6740   30.0151  -71.4870 H         1 UNK         0.0461 
     84 H84       -68.5941   27.7291  -72.4836 H         1 UNK         0.3453 
     85 H85       -70.0024   27.9181  -73.4972 H         1 UNK         0.3453 
     86 H86       -72.7445   27.8016  -73.1083 H         1 UNK         0.2984 
     87 H87       -73.8651   29.1165  -75.2523 H         1 UNK         0.0554 
     88 H88       -72.8152   29.4588  -77.4877 H         1 UNK         0.0847 
     89 H89       -71.2578   29.7732  -76.7210 H         1 UNK         0.0847 
     90 H90       -72.6090   30.8698  -76.4657 H         1 UNK         0.0847 
     91 H91       -73.3935   26.9990  -75.6450 H         1 UNK         0.3141 
     92 H92       -70.3652   25.1382  -76.1899 H         1 UNK         0.0743 
     93 H93       -71.3623   24.7942  -73.9099 H         1 UNK         0.0784 
     94 H94       -72.9676   24.7512  -74.6245 H         1 UNK         0.0784 
     95 H95       -71.7849   23.5192  -75.0404 H         1 UNK         0.0784 
     96 H96       -73.1424   24.8654  -77.0908 H         1 UNK         0.3213 
     97 H97       -72.2531   25.4976  -80.5117 H         1 UNK         0.0855 
     98 H98       -73.3883   23.1469  -78.9091 H         1 UNK         0.0814 
     99 H99       -71.9360   23.1191  -79.8943 H         1 UNK         0.0814 
    100 H100      -73.4989   23.3723  -80.6527 H         1 UNK         0.0814 
    101 H101      -74.1855   26.4841  -80.2860 H         1 UNK         0.3105 
    102 H102      -76.0338   27.3881  -79.4680 H         1 UNK         0.0547 
    103 H103      -78.2337   26.2112  -79.8059 H         1 UNK         0.0837 
    104 H104      -76.9226   25.3923  -80.6402 H         1 UNK         0.0837 
    105 H105      -77.5433   24.7348  -79.1342 H         1 UNK         0.0837 
    106 H106      -77.3970   26.1998  -77.1187 H         1 UNK         0.3020 
    107 H107      -76.2372   28.6244  -74.9092 H         1 UNK         0.1245 
    108 H108      -78.9721   28.5621  -74.5900 H         1 UNK         0.0781 
    109 H109      -78.9212   28.8783  -76.2910 H         1 UNK         0.0781 
    110 H110      -78.4488   31.9257  -72.9892 H         1 UNK         0.0836 
    111 H111      -79.8169   30.9657  -73.4918 H         1 UNK         0.0836 
    112 H112      -78.1028   26.4792  -74.6425 H         1 UNK         0.3022 
    113 H113      -75.5761   23.9927  -74.2308 H         1 UNK         0.0747 
    114 H114      -76.5130   23.6917  -71.9274 H         1 UNK         0.0793 
    115 H115      -77.1336   25.3422  -71.9638 H         1 UNK         0.0793 
    116 H116      -75.3968   25.0418  -72.0100 H         1 UNK         0.0793 
    117 H117      -78.4941   24.6508  -74.2824 H         1 UNK         0.3047 
    118 H118      -79.1784   21.6410  -75.9388 H         1 UNK         0.0822 
    119 H119      -79.1072   20.5912  -73.6735 H         1 UNK         0.0807 
    120 H120      -80.7552   20.9822  -74.1320 H         1 UNK         0.0807 
    121 H121      -79.8934   22.0004  -72.9763 H         1 UNK         0.0807 
    122 H122      -80.9057   23.5340  -74.6231 H         1 UNK         0.2946 
    123 H123      -80.7754   26.0506  -77.0462 H         1 UNK         0.1144 
    124 H124      -82.1893   24.4019  -78.2997 H         1 UNK         0.0793 
    125 H125      -83.1658   25.6224  -77.5031 H         1 UNK         0.0793 
    126 H126      -83.0434   24.0019  -76.8157 H         1 UNK         0.0793 
    127 H127      -82.7071   25.9286  -75.1240 H         1 UNK         0.2896 
@<TRIPOS>BOND
     1    1    2 1    
     2    1   67 1    
     3    1   68 1    
     4    1   69 1    
     5    2    3 2    
     6    2    4 am   BACKBONE|DICT|INTERRES
     7    4    5 1    
     8    4   70 1    
     9    5    6 1    
    10    5   65 1    
    11    5   71 1    
    12    6    7 1    
    13    6   72 1    
    14    6   73 1    
    15    7    8 1    
    16    8    9 1    
    17    8   74 1    
    18    8   75 1    
    19    9   10 ar   
    20    9   14 ar   
    21   10   11 ar   
    22   10   76 1    
    23   11   12 ar   
    24   11   48 1    
    25   12   13 ar   
    26   12   77 1    
    27   13   14 ar   
    28   13   15 1    
    29   14   78 1    
    30   15   16 1    
    31   15   79 1    
    32   15   80 1    
    33   16   17 1    
    34   17   18 1    
    35   17   81 1    
    36   17   82 1    
    37   18   19 1    
    38   18   22 1    
    39   18   83 1    
    40   19   20 am   BACKBONE|DICT|INTERRES
    41   19   21 2    
    42   20   84 1    
    43   20   85 1    
    44   22   23 am   BACKBONE|DICT|INTERRES
    45   22   86 1    
    46   23   24 2    
    47   23   25 1    
    48   25   26 1    
    49   25   27 1    
    50   25   87 1    
    51   26   88 1    
    52   26   89 1    
    53   26   90 1    
    54   27   28 am   BACKBONE|DICT|INTERRES
    55   27   91 1    
    56   28   29 2    
    57   28   30 1    
    58   30   31 1    
    59   30   32 1    
    60   30   92 1    
    61   31   93 1    
    62   31   94 1    
    63   31   95 1    
    64   32   33 am   BACKBONE|DICT|INTERRES
    65   32   96 1    
    66   33   34 2    
    67   33   35 1    
    68   35   36 1    
    69   35   37 1    
    70   35   97 1    
    71   36   98 1    
    72   36   99 1    
    73   36  100 1    
    74   37   38 am   BACKBONE|DICT|INTERRES
    75   37  101 1    
    76   38   39 2    
    77   38   40 1    
    78   40   41 1    
    79   40   42 1    
    80   40  102 1    
    81   41  103 1    
    82   41  104 1    
    83   41  105 1    
    84   42   43 am   BACKBONE|DICT|INTERRES
    85   42  106 1    
    86   43   44 2    
    87   43   45 1    
    88   45   46 1    
    89   45   49 1    
    90   45  107 1    
    91   46   47 1    
    92   46  108 1    
    93   46  109 1    
    94   47   48 1    
    95   48  110 1    
    96   48  111 1    
    97   49   50 am   BACKBONE|DICT|INTERRES
    98   49  112 1    
    99   50   51 2    
   100   50   52 1    
   101   52   53 1    
   102   52   54 1    
   103   52  113 1    
   104   53  114 1    
   105   53  115 1    
   106   53  116 1    
   107   54   55 am   BACKBONE|DICT|INTERRES
   108   54  117 1    
   109   55   56 2    
   110   55   57 1    
   111   57   58 1    
   112   57   59 1    
   113   57  118 1    
   114   58  119 1    
   115   58  120 1    
   116   58  121 1    
   117   59   60 am   BACKBONE|DICT|INTERRES
   118   59  122 1    
   119   60   61 2    
   120   60   62 1    
   121   62   63 1    
   122   62   64 1    
   123   62  123 1    
   124   63  124 1    
   125   63  125 1    
   126   63  126 1    
   127   64   65 am   BACKBONE|DICT|INTERRES
   128   64  127 1    
   129   65   66 2    
@<TRIPOS>SUBSTRUCTURE
     1 UNK         1 GROUP             0       ****    0 ROOT    
