@<TRIPOS>MOLECULE
3R135
127   129    1
SMALL
USER_CHARGES


@<TRIPOS>ATOM
      1 CA        -84.7554   25.2328  -74.7258 C.3       0 UNK        -0.1998 
      2 C         -84.2638   26.6212  -75.1060 C.2       0 UNK         0.4909 
      3 O         -84.8511   27.2637  -75.9761 O.2       0 UNK        -0.5240 
      4 N         -83.1792   27.0836  -74.4715 N.am      1 UNK        -0.4739 
      5 CA        -82.5453   28.3901  -74.7056 C.3       1 UNK         0.0864 
      6 C6        -81.8839   28.9327  -73.4121 C.3       11 UNK        -0.0881 
      7 S7        -80.5866   27.8418  -72.7303 S.3       11 UNK        -0.2682 
      8 C8        -79.2769   29.0568  -72.3531 C.3       11 UNK         0.0289 
      9 C9        -77.9962   28.4349  -71.7991 C.ar      11 UNK        -0.0687 
     10 C10       -78.0323   27.3420  -70.9243 C.ar      11 UNK        -0.0823 
     11 C11       -76.8510   26.7814  -70.4315 C.ar      11 UNK        -0.0830 
     12 C12       -75.6223   27.3373  -70.7923 C.ar      11 UNK        -0.1021 
     13 C13       -75.5679   28.4302  -71.6604 C.ar      11 UNK        -0.0753 
     14 C14       -76.7565   28.9780  -72.1548 C.ar      11 UNK        -0.0933 
     15 C15       -74.2215   28.9820  -72.0998 C.3       11 UNK         0.0166 
     16 S16       -73.8960   30.6217  -71.3798 S.3       11 UNK        -0.2615 
     17 C17       -72.0908   30.7734  -71.6152 C.3       11 UNK        -0.0865 
     18 CA        -71.6913   31.4768  -72.9393 C.3       10 UNK         0.0862 
     19 C         -70.1592   31.7618  -72.9615 C.2       10 UNK         0.5551 
     20 N         -69.3654   31.1053  -73.8009 N.am      10 UNK        -0.7319 
     21 O         -69.6842   32.5991  -72.1983 O.2       10 UNK        -0.5018 
     22 N         -72.1805   30.7326  -74.1081 N.am      10 UNK        -0.4509 
     23 C         -72.2497   31.2027  -75.3589 C.2       10 UNK         0.4899 
     24 O         -72.0357   32.3783  -75.6583 O.2       10 UNK        -0.4839 
     25 CA        -72.6148   30.1830  -76.4599 C.3       9 UNK         0.0222 
     26 CB        -71.9526   30.5224  -77.8116 C.3       9 UNK        -0.1966 
     27 N         -72.3538   28.7788  -76.1017 N.am      9 UNK        -0.4218 
     28 C         -71.1766   28.2298  -75.7501 C.2       9 UNK         0.5020 
     29 O         -70.1317   28.8737  -75.6414 O.2       9 UNK        -0.5274 
     30 CA        -71.1527   26.7256  -75.4114 C.3       8 UNK         0.0270 
     31 CB        -71.0213   26.5276  -73.8919 C.3       8 UNK        -0.1976 
     32 N         -72.3311   25.9975  -75.8878 N.am      8 UNK        -0.4313 
     33 C         -72.5827   25.7177  -77.1764 C.2       8 UNK         0.5041 
     34 O         -71.7846   25.9408  -78.0873 O.2       8 UNK        -0.5577 
     35 CA        -73.9622   25.1216  -77.5240 C.3       7 UNK         0.0284 
     36 CB        -73.8405   23.6155  -77.8041 C.3       7 UNK        -0.1958 
     37 N         -74.9888   25.3425  -76.4991 N.am      7 UNK        -0.4454 
     38 C         -75.4184   26.5451  -76.0828 C.2       7 UNK         0.5089 
     39 O         -75.0265   27.6090  -76.5624 O.2       7 UNK        -0.5125 
     40 CA        -76.3932   26.5835  -74.8929 C.3       6 UNK         0.0408 
     41 CB        -77.8195   26.8517  -75.3848 C.3       6 UNK        -0.1791 
     42 N         -76.3716   25.3746  -74.0615 N.am      6 UNK        -0.4762 
     43 C         -75.2980   24.9391  -73.3808 C.2       6 UNK         0.5007 
     44 O         -74.2211   25.5389  -73.3677 O.2       6 UNK        -0.5032 
     45 CA        -75.3929   23.5715  -72.6694 C.3       5 UNK         0.0783 
     46 C46       -75.4704   23.7030  -71.1248 C.3       11 UNK        -0.0857 
     47 S47       -77.1470   24.0317  -70.4683 S.3       11 UNK        -0.2512 
     48 C48       -76.9091   25.5675  -69.5192 C.3       11 UNK         0.0225 
     49 N         -76.4340   22.6836  -73.1990 N.am      5 UNK        -0.4615 
     50 C         -76.5248   22.2286  -74.4544 C.2       4 UNK         0.5053 
     51 O         -75.7257   22.5227  -75.3446 O.2       4 UNK        -0.5105 
     52 CA        -77.7173   21.3117  -74.7894 C.3       4 UNK         0.0263 
     53 CB        -78.5701   20.9027  -73.5649 C.3       4 UNK        -0.1981 
     54 N         -78.5701   21.8895  -75.8343 N.am      4 UNK        -0.4224 
     55 C         -79.1895   23.0781  -75.8004 C.2       3 UNK         0.4895 
     56 O         -79.1178   23.8765  -74.8612 O.2       3 UNK        -0.5091 
     57 CA        -80.0550   23.4170  -77.0201 C.3       3 UNK         0.0250 
     58 CB        -81.3867   22.6447  -76.9864 C.3       3 UNK        -0.1996 
     59 N         -80.3289   24.8506  -77.0270 N.am      3 UNK        -0.4254 
     60 C         -80.4655   25.6133  -78.1185 C.2       2 UNK         0.5004 
     61 O         -80.4059   25.1715  -79.2671 O.2       2 UNK        -0.5226 
     62 CA        -80.7318   27.1108  -77.8847 C.3       2 UNK         0.0269 
     63 CB        -81.3967   27.7980  -79.0957 C.3       2 UNK        -0.1926 
     64 N         -81.5509   27.3005  -76.6868 N.am      2 UNK        -0.4687 
     65 C         -81.5852   28.3984  -75.9214 C.2       1 UNK         0.5165 
     66 O         -80.8984   29.3964  -76.1460 O.2       1 UNK        -0.5079 
     67 H67       -84.1388   24.7803  -73.9492 H         1 UNK         0.0900 
     68 H68       -84.7395   24.5772  -75.5961 H         1 UNK         0.0900 
     69 H69       -85.7795   25.2857  -74.3573 H         1 UNK         0.0900 
     70 H70       -82.7278   26.5143  -73.7682 H         1 UNK         0.2959 
     71 H71       -83.3341   29.0985  -74.9690 H         1 UNK         0.1079 
     72 H72       -82.6463   29.0606  -72.6422 H         1 UNK         0.0837 
     73 H73       -81.4801   29.9323  -73.5837 H         1 UNK         0.0837 
     74 H74       -79.6569   29.7780  -71.6285 H         1 UNK         0.0685 
     75 H75       -79.0548   29.6121  -73.2660 H         1 UNK         0.0685 
     76 H76       -78.9809   26.9112  -70.6354 H         1 UNK         0.1434 
     77 H77       -74.7055   26.9032  -70.4180 H         1 UNK         0.1329 
     78 H78       -76.7105   29.8226  -72.8287 H         1 UNK         0.1335 
     79 H79       -73.4247   28.2918  -71.8188 H         1 UNK         0.0680 
     80 H80       -74.2040   29.0479  -73.1881 H         1 UNK         0.0680 
     81 H81       -71.7121   31.3410  -70.7627 H         1 UNK         0.1032 
     82 H82       -71.6218   29.7904  -71.5423 H         1 UNK         0.1032 
     83 H83       -72.1793   32.4533  -72.9538 H         1 UNK         0.0461 
     84 H84       -68.3783   31.3063  -73.8011 H         1 UNK         0.3453 
     85 H85       -69.7349   30.4043  -74.4352 H         1 UNK         0.3453 
     86 H86       -72.3601   29.7522  -73.9650 H         1 UNK         0.2984 
     87 H87       -73.6947   30.2605  -76.5930 H         1 UNK         0.0554 
     88 H88       -72.2362   29.8060  -78.5827 H         1 UNK         0.0847 
     89 H89       -70.8645   30.5237  -77.7388 H         1 UNK         0.0847 
     90 H90       -72.2562   31.5094  -78.1627 H         1 UNK         0.0847 
     91 H91       -73.1672   28.1728  -76.1682 H         1 UNK         0.3141 
     92 H92       -70.2692   26.2981  -75.8900 H         1 UNK         0.0743 
     93 H93       -70.1222   27.0133  -73.5097 H         1 UNK         0.0784 
     94 H94       -71.8719   26.9472  -73.3539 H         1 UNK         0.0784 
     95 H95       -70.9516   25.4708  -73.6336 H         1 UNK         0.0784 
     96 H96       -73.0336   25.7694  -75.1922 H         1 UNK         0.3213 
     97 H97       -74.3030   25.6136  -78.4374 H         1 UNK         0.0855 
     98 H98       -73.5006   23.0689  -76.9235 H         1 UNK         0.0814 
     99 H99       -73.1242   23.4229  -78.6041 H         1 UNK         0.0814 
    100 H100      -74.7948   23.1896  -78.1147 H         1 UNK         0.0814 
    101 H101      -75.3493   24.5140  -76.0366 H         1 UNK         0.3105 
    102 H102      -76.0886   27.4168  -74.2618 H         1 UNK         0.0547 
    103 H103      -77.8950   27.8376  -75.8454 H         1 UNK         0.0837 
    104 H104      -78.1179   26.1178  -76.1306 H         1 UNK         0.0837 
    105 H105      -78.5379   26.8180  -74.5671 H         1 UNK         0.0837 
    106 H106      -77.2172   24.8154  -74.0454 H         1 UNK         0.3020 
    107 H107      -74.4427   23.0816  -72.8949 H         1 UNK         0.1245 
    108 H108      -74.7656   24.4529  -70.7615 H         1 UNK         0.0781 
    109 H109      -75.1388   22.7652  -70.6765 H         1 UNK         0.0781 
    110 H110      -76.0087   25.4922  -68.9074 H         1 UNK         0.0836 
    111 H111      -77.7394   25.6798  -68.8204 H         1 UNK         0.0836 
    112 H112      -77.1616   22.4350  -72.5441 H         1 UNK         0.3022 
    113 H113      -77.2862   20.4013  -75.2087 H         1 UNK         0.0747 
    114 H114      -79.3549   20.2039  -73.8548 H         1 UNK         0.0793 
    115 H115      -77.9643   20.4005  -72.8093 H         1 UNK         0.0793 
    116 H116      -79.0548   21.7580  -73.0921 H         1 UNK         0.0793 
    117 H117      -78.6704   21.3257  -76.6671 H         1 UNK         0.3047 
    118 H118      -79.4945   23.1452  -77.9175 H         1 UNK         0.0822 
    119 H119      -81.2203   21.5668  -76.9882 H         1 UNK         0.0807 
    120 H120      -82.0006   22.8766  -77.8570 H         1 UNK         0.0807 
    121 H121      -81.9677   22.8845  -76.0947 H         1 UNK         0.0807 
    122 H122      -80.3097   25.2801  -76.1103 H         1 UNK         0.2946 
    123 H123      -79.7561   27.5738  -77.7221 H         1 UNK         0.1144 
    124 H124      -80.7831   27.6982  -79.9919 H         1 UNK         0.0793 
    125 H125      -81.5361   28.8652  -78.9227 H         1 UNK         0.0793 
    126 H126      -82.3727   27.3639  -79.3152 H         1 UNK         0.0793 
    127 H127      -82.1626   26.5348  -76.4397 H         1 UNK         0.2896 
@<TRIPOS>BOND
     1    1    2 1    
     2    1   67 1    
     3    1   68 1    
     4    1   69 1    
     5    2    3 2    
     6    2    4 am   BACKBONE|DICT|INTERRES
     7    4    5 1    
     8    4   70 1    
     9    5    6 1    
    10    5   65 1    
    11    5   71 1    
    12    6    7 1    
    13    6   72 1    
    14    6   73 1    
    15    7    8 1    
    16    8    9 1    
    17    8   74 1    
    18    8   75 1    
    19    9   10 ar   
    20    9   14 ar   
    21   10   11 ar   
    22   10   76 1    
    23   11   12 ar   
    24   11   48 1    
    25   12   13 ar   
    26   12   77 1    
    27   13   14 ar   
    28   13   15 1    
    29   14   78 1    
    30   15   16 1    
    31   15   79 1    
    32   15   80 1    
    33   16   17 1    
    34   17   18 1    
    35   17   81 1    
    36   17   82 1    
    37   18   19 1    
    38   18   22 1    
    39   18   83 1    
    40   19   20 am   BACKBONE|DICT|INTERRES
    41   19   21 2    
    42   20   84 1    
    43   20   85 1    
    44   22   23 am   BACKBONE|DICT|INTERRES
    45   22   86 1    
    46   23   24 2    
    47   23   25 1    
    48   25   26 1    
    49   25   27 1    
    50   25   87 1    
    51   26   88 1    
    52   26   89 1    
    53   26   90 1    
    54   27   28 am   BACKBONE|DICT|INTERRES
    55   27   91 1    
    56   28   29 2    
    57   28   30 1    
    58   30   31 1    
    59   30   32 1    
    60   30   92 1    
    61   31   93 1    
    62   31   94 1    
    63   31   95 1    
    64   32   33 am   BACKBONE|DICT|INTERRES
    65   32   96 1    
    66   33   34 2    
    67   33   35 1    
    68   35   36 1    
    69   35   37 1    
    70   35   97 1    
    71   36   98 1    
    72   36   99 1    
    73   36  100 1    
    74   37   38 am   BACKBONE|DICT|INTERRES
    75   37  101 1    
    76   38   39 2    
    77   38   40 1    
    78   40   41 1    
    79   40   42 1    
    80   40  102 1    
    81   41  103 1    
    82   41  104 1    
    83   41  105 1    
    84   42   43 am   BACKBONE|DICT|INTERRES
    85   42  106 1    
    86   43   44 2    
    87   43   45 1    
    88   45   46 1    
    89   45   49 1    
    90   45  107 1    
    91   46   47 1    
    92   46  108 1    
    93   46  109 1    
    94   47   48 1    
    95   48  110 1    
    96   48  111 1    
    97   49   50 am   BACKBONE|DICT|INTERRES
    98   49  112 1    
    99   50   51 2    
   100   50   52 1    
   101   52   53 1    
   102   52   54 1    
   103   52  113 1    
   104   53  114 1    
   105   53  115 1    
   106   53  116 1    
   107   54   55 am   BACKBONE|DICT|INTERRES
   108   54  117 1    
   109   55   56 2    
   110   55   57 1    
   111   57   58 1    
   112   57   59 1    
   113   57  118 1    
   114   58  119 1    
   115   58  120 1    
   116   58  121 1    
   117   59   60 am   BACKBONE|DICT|INTERRES
   118   59  122 1    
   119   60   61 2    
   120   60   62 1    
   121   62   63 1    
   122   62   64 1    
   123   62  123 1    
   124   63  124 1    
   125   63  125 1    
   126   63  126 1    
   127   64   65 am   BACKBONE|DICT|INTERRES
   128   64  127 1    
   129   65   66 2    
@<TRIPOS>SUBSTRUCTURE
     1 UNK         1 GROUP             0       ****    0 ROOT    
