@<TRIPOS>MOLECULE
3R135
127   129    1
SMALL
USER_CHARGES


@<TRIPOS>ATOM
      1 CA        -80.9492   26.4168  -75.1653 C.3       0 UNK        -0.1998 
      2 C         -82.0790   26.4794  -74.1439 C.2       0 UNK         0.4909 
      3 O         -83.2300   26.6766  -74.5289 O.2       0 UNK        -0.5240 
      4 N         -81.8114   26.3301  -72.8404 N.am      1 UNK        -0.4739 
      5 CA        -80.5134   26.0301  -72.2196 C.3       1 UNK         0.0864 
      6 C6        -80.5454   26.2794  -70.6903 C.3       11 UNK        -0.0881 
      7 S7        -81.1865   27.9304  -70.2457 S.3       11 UNK        -0.2682 
      8 C8        -79.6650   28.8462  -69.8415 C.3       11 UNK         0.0289 
      9 C9        -78.8244   29.2242  -71.0581 C.ar      11 UNK        -0.0687 
     10 C10       -79.4042   29.8243  -72.1826 C.ar      11 UNK        -0.0823 
     11 C11       -78.6108   30.2631  -73.2488 C.ar      11 UNK        -0.0830 
     12 C12       -77.2237   30.0915  -73.1878 C.ar      11 UNK        -0.1021 
     13 C13       -76.6328   29.4966  -72.0686 C.ar      11 UNK        -0.0753 
     14 C14       -77.4378   29.0558  -71.0150 C.ar      11 UNK        -0.0933 
     15 C15       -75.1219   29.3626  -71.9709 C.3       11 UNK         0.0166 
     16 S16       -74.3875   30.8422  -71.2143 S.3       11 UNK        -0.2615 
     17 C17       -72.7311   30.2367  -70.7442 C.3       11 UNK        -0.0865 
     18 CA        -71.6905   30.4193  -71.8769 C.3       10 UNK         0.0862 
     19 C         -70.2424   30.3104  -71.3279 C.2       10 UNK         0.5551 
     20 N         -69.6560   31.4228  -70.9079 N.am      10 UNK        -0.7319 
     21 O         -69.6639   29.2287  -71.2402 O.2       10 UNK        -0.5018 
     22 N         -71.9222   29.4610  -72.9642 N.am      10 UNK        -0.4509 
     23 C         -71.4950   29.6091  -74.2198 C.2       10 UNK         0.4899 
     24 O         -70.9429   30.6297  -74.6328 O.2       10 UNK        -0.4839 
     25 CA        -71.7133   28.4413  -75.1998 C.3       9 UNK         0.0222 
     26 CB        -70.4200   27.6211  -75.3670 C.3       9 UNK        -0.1966 
     27 N         -72.8581   27.5579  -74.9297 N.am      9 UNK        -0.4218 
     28 C         -73.0626   26.6965  -73.9210 C.2       9 UNK         0.5020 
     29 O         -72.3638   26.6412  -72.9090 O.2       9 UNK        -0.5274 
     30 CA        -74.2422   25.7164  -74.0757 C.3       8 UNK         0.0270 
     31 CB        -75.5501   26.3309  -73.5527 C.3       8 UNK        -0.1976 
     32 N         -74.4424   25.2866  -75.4606 N.am      8 UNK        -0.4313 
     33 C         -73.5723   24.5731  -76.1897 C.2       8 UNK         0.5041 
     34 O         -72.5177   24.1115  -75.7517 O.2       8 UNK        -0.5577 
     35 CA        -73.9255   24.3743  -77.6717 C.3       7 UNK         0.0284 
     36 CB        -74.9117   23.2081  -77.8546 C.3       7 UNK        -0.1958 
     37 N         -74.4820   25.5994  -78.2525 N.am      7 UNK        -0.4454 
     38 C         -73.7476   26.6508  -78.6455 C.2       7 UNK         0.5089 
     39 O         -72.5170   26.6681  -78.6367 O.2       7 UNK        -0.5125 
     40 CA        -74.5091   27.9020  -79.1240 C.3       6 UNK         0.0408 
     41 CB        -74.7177   27.8514  -80.6457 C.3       6 UNK        -0.1791 
     42 N         -75.8047   28.0820  -78.4628 N.am      6 UNK        -0.4762 
     43 C         -75.9626   28.4169  -77.1731 C.2       6 UNK         0.5007 
     44 O         -75.0262   28.6644  -76.4152 O.2       6 UNK        -0.5032 
     45 CA        -77.4027   28.4057  -76.6174 C.3       5 UNK         0.0783 
     46 C46       -78.0427   29.8088  -76.7045 C.3       11 UNK        -0.0857 
     47 S47       -79.6362   29.8849  -75.8173 S.3       11 UNK        -0.2512 
     48 C48       -79.2511   30.9927  -74.4236 C.3       11 UNK         0.0225 
     49 N         -78.2342   27.3679  -77.2459 N.am      5 UNK        -0.4615 
     50 C         -77.9841   26.0587  -77.1398 C.2       4 UNK         0.5053 
     51 O         -77.0165   25.6054  -76.5281 O.2       4 UNK        -0.5105 
     52 CA        -78.9225   25.0984  -77.8689 C.3       4 UNK         0.0263 
     53 CB        -78.4225   24.8243  -79.2980 C.3       4 UNK        -0.1981 
     54 N         -78.9619   23.8573  -77.1045 N.am      4 UNK        -0.4224 
     55 C         -79.9678   22.9801  -77.0797 C.2       3 UNK         0.4895 
     56 O         -80.9826   23.0856  -77.7691 O.2       3 UNK        -0.5091 
     57 CA        -79.8454   21.7970  -76.1035 C.3       3 UNK         0.0250 
     58 CB        -78.9376   20.6896  -76.6755 C.3       3 UNK        -0.1996 
     59 N         -79.4558   22.1823  -74.7375 N.am      3 UNK        -0.4254 
     60 C         -78.2765   22.6357  -74.2895 C.2       2 UNK         0.5004 
     61 O         -77.2940   22.8244  -75.0072 O.2       2 UNK        -0.5226 
     62 CA        -78.2099   22.9806  -72.7902 C.3       2 UNK         0.0269 
     63 CB        -76.7730   22.9203  -72.2393 C.3       2 UNK        -0.1926 
     64 N         -78.7792   24.3067  -72.5261 N.am      2 UNK        -0.4687 
     65 C         -80.0923   24.5721  -72.5064 C.2       1 UNK         0.5165 
     66 O         -80.9559   23.7075  -72.6805 O.2       1 UNK        -0.5079 
     67 H67       -80.6137   25.3895  -75.2948 H         1 UNK         0.0900 
     68 H68       -80.1027   27.0334  -74.8674 H         1 UNK         0.0900 
     69 H69       -81.2940   26.7827  -76.1321 H         1 UNK         0.0900 
     70 H70       -82.5812   26.3799  -72.1891 H         1 UNK         0.2959 
     71 H71       -79.7639   26.6986  -72.6472 H         1 UNK         0.1079 
     72 H72       -81.1830   25.5426  -70.1968 H         1 UNK         0.0837 
     73 H73       -79.5507   26.1507  -70.2591 H         1 UNK         0.0837 
     74 H74       -79.9466   29.7657  -69.3269 H         1 UNK         0.0685 
     75 H75       -79.0817   28.2648  -69.1256 H         1 UNK         0.0685 
     76 H76       -80.4742   29.9797  -72.2122 H         1 UNK         0.1434 
     77 H77       -76.5982   30.4497  -73.9939 H         1 UNK         0.1329 
     78 H78       -76.9757   28.6178  -70.1407 H         1 UNK         0.1335 
     79 H79       -74.8623   28.4820  -71.3821 H         1 UNK         0.0680 
     80 H80       -74.6939   29.2189  -72.9635 H         1 UNK         0.0680 
     81 H81       -72.7826   29.1956  -70.4197 H         1 UNK         0.1032 
     82 H82       -72.4348   30.8059  -69.8606 H         1 UNK         0.1032 
     83 H83       -71.8106   31.4257  -72.2843 H         1 UNK         0.0461 
     84 H84       -70.1249   32.3136  -70.9666 H         1 UNK         0.3453 
     85 H85       -68.7213   31.3732  -70.5332 H         1 UNK         0.3453 
     86 H86       -72.2469   28.5372  -72.6968 H         1 UNK         0.2984 
     87 H87       -71.9352   28.8968  -76.1663 H         1 UNK         0.0554 
     88 H88       -70.5379   26.8493  -76.1282 H         1 UNK         0.0847 
     89 H89       -70.1254   27.1338  -74.4369 H         1 UNK         0.0847 
     90 H90       -69.5902   28.2580  -75.6762 H         1 UNK         0.0847 
     91 H91       -73.5950   27.6230  -75.6267 H         1 UNK         0.3141 
     92 H92       -74.0178   24.8248  -73.4871 H         1 UNK         0.0743 
     93 H93       -75.7450   27.3034  -74.0027 H         1 UNK         0.0784 
     94 H94       -76.4072   25.6954  -73.7731 H         1 UNK         0.0784 
     95 H95       -75.5116   26.4631  -72.4717 H         1 UNK         0.0784 
     96 H96       -75.3373   25.5245  -75.8862 H         1 UNK         0.3213 
     97 H97       -73.0054   24.1216  -78.2037 H         1 UNK         0.0855 
     98 H98       -74.4920   22.2819  -77.4601 H         1 UNK         0.0814 
     99 H99       -75.1367   23.0388  -78.9075 H         1 UNK         0.0814 
    100 H100      -75.8531   23.3797  -77.3328 H         1 UNK         0.0814 
    101 H101      -75.4873   25.6920  -78.2368 H         1 UNK         0.3105 
    102 H102      -73.8893   28.7719  -78.8953 H         1 UNK         0.0547 
    103 H103      -73.7647   27.7443  -81.1659 H         1 UNK         0.0837 
    104 H104      -75.3458   27.0103  -80.9418 H         1 UNK         0.0837 
    105 H105      -75.1833   28.7658  -81.0138 H         1 UNK         0.0837 
    106 H106      -76.6305   27.9012  -79.0152 H         1 UNK         0.3020 
    107 H107      -77.3186   28.1491  -75.5592 H         1 UNK         0.1245 
    108 H108      -77.3685   30.5671  -76.3025 H         1 UNK         0.0781 
    109 H109      -78.2167   30.0865  -77.7457 H         1 UNK         0.0781 
    110 H110      -78.6114   31.8110  -74.7573 H         1 UNK         0.0836 
    111 H111      -80.1799   31.4639  -74.0982 H         1 UNK         0.0836 
    112 H112      -79.0412   27.6884  -77.7618 H         1 UNK         0.3022 
    113 H113      -79.9213   25.5377  -77.9057 H         1 UNK         0.0747 
    114 H114      -79.0939   24.1485  -79.8279 H         1 UNK         0.0793 
    115 H115      -78.3673   25.7450  -79.8802 H         1 UNK         0.0793 
    116 H116      -77.4296   24.3733  -79.2994 H         1 UNK         0.0793 
    117 H117      -78.1730   23.7106  -76.4744 H         1 UNK         0.3047 
    118 H118      -80.8463   21.3728  -76.0069 H         1 UNK         0.0822 
    119 H119      -78.8965   19.8274  -76.0100 H         1 UNK         0.0807 
    120 H120      -77.9167   21.0366  -76.8385 H         1 UNK         0.0807 
    121 H121      -79.3144   20.3392  -77.6373 H         1 UNK         0.0807 
    122 H122      -80.2153   22.1783  -74.0655 H         1 UNK         0.2946 
    123 H123      -78.7937   22.2313  -72.2495 H         1 UNK         0.1144 
    124 H124      -76.3479   21.9259  -72.3809 H         1 UNK         0.0793 
    125 H125      -76.1095   23.6242  -72.7390 H         1 UNK         0.0793 
    126 H126      -76.7467   23.1336  -71.1706 H         1 UNK         0.0793 
    127 H127      -78.1191   25.0562  -72.3790 H         1 UNK         0.2896 
@<TRIPOS>BOND
     1    1    2 1    
     2    1   67 1    
     3    1   68 1    
     4    1   69 1    
     5    2    3 2    
     6    2    4 am   BACKBONE|DICT|INTERRES
     7    4    5 1    
     8    4   70 1    
     9    5    6 1    
    10    5   65 1    
    11    5   71 1    
    12    6    7 1    
    13    6   72 1    
    14    6   73 1    
    15    7    8 1    
    16    8    9 1    
    17    8   74 1    
    18    8   75 1    
    19    9   10 ar   
    20    9   14 ar   
    21   10   11 ar   
    22   10   76 1    
    23   11   12 ar   
    24   11   48 1    
    25   12   13 ar   
    26   12   77 1    
    27   13   14 ar   
    28   13   15 1    
    29   14   78 1    
    30   15   16 1    
    31   15   79 1    
    32   15   80 1    
    33   16   17 1    
    34   17   18 1    
    35   17   81 1    
    36   17   82 1    
    37   18   19 1    
    38   18   22 1    
    39   18   83 1    
    40   19   20 am   BACKBONE|DICT|INTERRES
    41   19   21 2    
    42   20   84 1    
    43   20   85 1    
    44   22   23 am   BACKBONE|DICT|INTERRES
    45   22   86 1    
    46   23   24 2    
    47   23   25 1    
    48   25   26 1    
    49   25   27 1    
    50   25   87 1    
    51   26   88 1    
    52   26   89 1    
    53   26   90 1    
    54   27   28 am   BACKBONE|DICT|INTERRES
    55   27   91 1    
    56   28   29 2    
    57   28   30 1    
    58   30   31 1    
    59   30   32 1    
    60   30   92 1    
    61   31   93 1    
    62   31   94 1    
    63   31   95 1    
    64   32   33 am   BACKBONE|DICT|INTERRES
    65   32   96 1    
    66   33   34 2    
    67   33   35 1    
    68   35   36 1    
    69   35   37 1    
    70   35   97 1    
    71   36   98 1    
    72   36   99 1    
    73   36  100 1    
    74   37   38 am   BACKBONE|DICT|INTERRES
    75   37  101 1    
    76   38   39 2    
    77   38   40 1    
    78   40   41 1    
    79   40   42 1    
    80   40  102 1    
    81   41  103 1    
    82   41  104 1    
    83   41  105 1    
    84   42   43 am   BACKBONE|DICT|INTERRES
    85   42  106 1    
    86   43   44 2    
    87   43   45 1    
    88   45   46 1    
    89   45   49 1    
    90   45  107 1    
    91   46   47 1    
    92   46  108 1    
    93   46  109 1    
    94   47   48 1    
    95   48  110 1    
    96   48  111 1    
    97   49   50 am   BACKBONE|DICT|INTERRES
    98   49  112 1    
    99   50   51 2    
   100   50   52 1    
   101   52   53 1    
   102   52   54 1    
   103   52  113 1    
   104   53  114 1    
   105   53  115 1    
   106   53  116 1    
   107   54   55 am   BACKBONE|DICT|INTERRES
   108   54  117 1    
   109   55   56 2    
   110   55   57 1    
   111   57   58 1    
   112   57   59 1    
   113   57  118 1    
   114   58  119 1    
   115   58  120 1    
   116   58  121 1    
   117   59   60 am   BACKBONE|DICT|INTERRES
   118   59  122 1    
   119   60   61 2    
   120   60   62 1    
   121   62   63 1    
   122   62   64 1    
   123   62  123 1    
   124   63  124 1    
   125   63  125 1    
   126   63  126 1    
   127   64   65 am   BACKBONE|DICT|INTERRES
   128   64  127 1    
   129   65   66 2    
@<TRIPOS>SUBSTRUCTURE
     1 UNK         1 GROUP             0       ****    0 ROOT    
