@<TRIPOS>MOLECULE
3R135
127   129    1
SMALL
USER_CHARGES


@<TRIPOS>ATOM
      1 CA        -80.6342   29.3076  -70.8218 C.3       0 UNK        -0.1998 
      2 C         -81.2950   28.8428  -72.1103 C.2       0 UNK         0.4909 
      3 O         -82.5079   28.6342  -72.1396 O.2       0 UNK        -0.5240 
      4 N         -80.5019   28.6840  -73.1777 N.am      1 UNK        -0.4739 
      5 CA        -80.9479   28.2871  -74.5221 C.3       1 UNK         0.0864 
      6 C6        -79.8564   28.5182  -75.5997 C.3       11 UNK        -0.0881 
      7 S7        -79.1225   30.1916  -75.5378 S.3       11 UNK        -0.2682 
      8 C8        -77.3904   29.8397  -75.0953 C.3       11 UNK         0.0289 
      9 C9        -77.2060   29.5335  -73.6151 C.ar      11 UNK        -0.0687 
     10 C10       -77.3931   28.2368  -73.1287 C.ar      11 UNK        -0.0823 
     11 C11       -77.2327   27.9526  -71.7692 C.ar      11 UNK        -0.0830 
     12 C12       -76.8501   28.9762  -70.8980 C.ar      11 UNK        -0.1021 
     13 C13       -76.6046   30.2657  -71.3791 C.ar      11 UNK        -0.0753 
     14 C14       -76.8075   30.5426  -72.7347 C.ar      11 UNK        -0.0933 
     15 C15       -76.1029   31.3615  -70.4453 C.3       11 UNK         0.0166 
     16 S16       -74.5871   30.9187  -69.5165 S.3       11 UNK        -0.2615 
     17 C17       -73.5753   29.9814  -70.7181 C.3       11 UNK        -0.0865 
     18 CA        -73.1279   30.8069  -71.9590 C.3       10 UNK         0.0862 
     19 C         -71.6640   31.3228  -71.8180 C.2       10 UNK         0.5551 
     20 N         -70.7156   30.8728  -72.6331 N.am      10 UNK        -0.7319 
     21 O         -71.3853   32.1505  -70.9544 O.2       10 UNK        -0.5018 
     22 N         -73.3946   30.0665  -73.2010 N.am      10 UNK        -0.4509 
     23 C         -73.4671   30.6129  -74.4205 C.2       10 UNK         0.4899 
     24 O         -73.4331   31.8271  -74.6259 O.2       10 UNK        -0.4839 
     25 CA        -73.5997   29.6407  -75.6110 C.3       9 UNK         0.0222 
     26 CB        -72.9555   30.2049  -76.8947 C.3       9 UNK        -0.1966 
     27 N         -73.1075   28.2815  -75.3445 N.am      9 UNK        -0.4218 
     28 C         -71.8589   27.9162  -75.0106 C.2       9 UNK         0.5020 
     29 O         -70.9461   28.7089  -74.7733 O.2       9 UNK        -0.5274 
     30 CA        -71.5884   26.4063  -74.9245 C.3       8 UNK         0.0270 
     31 CB        -71.9932   25.8581  -73.5453 C.3       8 UNK        -0.1976 
     32 N         -72.3008   25.6803  -75.9795 N.am      8 UNK        -0.4313 
     33 C         -71.8577   25.5469  -77.2390 C.2       8 UNK         0.5041 
     34 O         -70.7475   25.9235  -77.6166 O.2       8 UNK        -0.5577 
     35 CA        -72.8101   24.8912  -78.2571 C.3       7 UNK         0.0284 
     36 CB        -72.5663   23.3752  -78.3229 C.3       7 UNK        -0.1958 
     37 N         -74.2212   25.1555  -77.9588 N.am      7 UNK        -0.4454 
     38 C         -74.8108   26.3483  -78.1439 C.2       7 UNK         0.5089 
     39 O         -74.2587   27.2938  -78.7050 O.2       7 UNK        -0.5125 
     40 CA        -76.2365   26.5528  -77.5901 C.3       6 UNK         0.0408 
     41 CB        -77.2672   26.5248  -78.7280 C.3       6 UNK        -0.1791 
     42 N         -76.6288   25.5969  -76.5481 N.am      6 UNK        -0.4762 
     43 C         -76.0064   25.4525  -75.3657 C.2       6 UNK         0.5007 
     44 O         -75.0990   26.2017  -75.0027 O.2       6 UNK        -0.5032 
     45 CA        -76.3795   24.2283  -74.4910 C.3       5 UNK         0.0783 
     46 C46       -77.2462   24.6099  -73.2682 C.3       11 UNK        -0.0857 
     47 S47       -76.2884   25.3391  -71.8982 S.3       11 UNK        -0.2512 
     48 C48       -77.4742   26.5492  -71.2302 C.3       11 UNK         0.0225 
     49 N         -77.0140   23.1470  -75.2547 N.am      5 UNK        -0.4615 
     50 C         -76.4541   22.4936  -76.2834 C.2       4 UNK         0.5053 
     51 O         -75.2937   22.6800  -76.6479 O.2       4 UNK        -0.5105 
     52 CA        -77.3421   21.5236  -77.0852 C.3       4 UNK         0.0263 
     53 CB        -77.0448   20.0711  -76.6817 C.3       4 UNK        -0.1981 
     54 N         -78.7835   21.7724  -76.9640 N.am      4 UNK        -0.4224 
     55 C         -79.4189   22.9147  -77.2678 C.2       3 UNK         0.4895 
     56 O         -78.8539   23.9169  -77.7058 O.2       3 UNK        -0.5091 
     57 CA        -80.9326   22.9727  -76.9898 C.3       3 UNK         0.0250 
     58 CB        -81.5981   21.5829  -76.8664 C.3       3 UNK        -0.1996 
     59 N         -81.2518   23.7892  -75.8113 N.am      3 UNK        -0.4254 
     60 C         -80.7604   23.6632  -74.5699 C.2       2 UNK         0.5004 
     61 O         -79.8635   22.8752  -74.2610 O.2       2 UNK        -0.5226 
     62 CA        -81.3776   24.5805  -73.4964 C.3       2 UNK         0.0269 
     63 CB        -81.0211   24.1330  -72.0660 C.3       2 UNK        -0.1926 
     64 N         -80.9857   25.9815  -73.6582 N.am      2 UNK        -0.4687 
     65 C         -81.4545   26.8290  -74.5854 C.2       1 UNK         0.5165 
     66 O         -82.2559   26.5002  -75.4618 O.2       1 UNK        -0.5079 
     67 H67       -81.2596   30.0461  -70.3210 H         1 UNK         0.0900 
     68 H68       -79.6638   29.7660  -71.0105 H         1 UNK         0.0900 
     69 H69       -80.4913   28.4650  -70.1459 H         1 UNK         0.0900 
     70 H70       -79.5207   28.9187  -73.1009 H         1 UNK         0.2959 
     71 H71       -81.8010   28.9217  -74.7731 H         1 UNK         0.1079 
     72 H72       -80.2898   28.3915  -76.5939 H         1 UNK         0.0837 
     73 H73       -79.0693   27.7664  -75.5336 H         1 UNK         0.0837 
     74 H74       -77.0219   29.0104  -75.6950 H         1 UNK         0.0685 
     75 H75       -76.7855   30.7046  -75.3720 H         1 UNK         0.0685 
     76 H76       -77.6636   27.4474  -73.8110 H         1 UNK         0.1434 
     77 H77       -76.7076   28.7668  -69.8465 H         1 UNK         0.1329 
     78 H78       -76.6316   31.5408  -73.1119 H         1 UNK         0.1335 
     79 H79       -76.8914   31.6060  -69.7326 H         1 UNK         0.0680 
     80 H80       -75.9047   32.2776  -71.0037 H         1 UNK         0.0680 
     81 H81       -74.1442   29.1006  -71.0161 H         1 UNK         0.1032 
     82 H82       -72.7171   29.5689  -70.1835 H         1 UNK         0.1032 
     83 H83       -73.7426   31.7066  -72.0127 H         1 UNK         0.0461 
     84 H84       -70.9239   30.1879  -73.3516 H         1 UNK         0.3453 
     85 H85       -69.7750   31.2188  -72.5309 H         1 UNK         0.3453 
     86 H86       -73.4328   29.0614  -73.1280 H         1 UNK         0.2984 
     87 H87       -74.6660   29.5341  -75.8019 H         1 UNK         0.0554 
     88 H88       -73.0615   29.5137  -77.7304 H         1 UNK         0.0847 
     89 H89       -71.8919   30.4036  -76.7584 H         1 UNK         0.0847 
     90 H90       -73.4261   31.1426  -77.1924 H         1 UNK         0.0847 
     91 H91       -73.8076   27.5456  -75.4029 H         1 UNK         0.3141 
     92 H92       -70.5143   26.2502  -75.0467 H         1 UNK         0.0743 
     93 H93       -73.0550   25.9979  -73.3398 H         1 UNK         0.0784 
     94 H94       -71.7749   24.7932  -73.4638 H         1 UNK         0.0784 
     95 H95       -71.4409   26.3623  -72.7510 H         1 UNK         0.0784 
     96 H96       -73.2438   25.3836  -75.7646 H         1 UNK         0.3213 
     97 H97       -72.5845   25.3112  -79.2400 H         1 UNK         0.0855 
     98 H98       -72.7218   22.8970  -77.3552 H         1 UNK         0.0814 
     99 H99       -71.5415   23.1603  -78.6289 H         1 UNK         0.0814 
    100 H100      -73.2279   22.8957  -79.0445 H         1 UNK         0.0814 
    101 H101      -74.7405   24.4051  -77.5123 H         1 UNK         0.3105 
    102 H102      -76.2551   27.5477  -77.1480 H         1 UNK         0.0547 
    103 H103      -77.2883   25.5555  -79.2274 H         1 UNK         0.0837 
    104 H104      -78.2718   26.7350  -78.3603 H         1 UNK         0.0837 
    105 H105      -77.0356   27.2759  -79.4843 H         1 UNK         0.0837 
    106 H106      -77.3594   24.9374  -76.8024 H         1 UNK         0.3020 
    107 H107      -75.4353   23.8208  -74.1224 H         1 UNK         0.1245 
    108 H108      -78.0763   25.2518  -73.5630 H         1 UNK         0.0781 
    109 H109      -77.7076   23.7127  -72.8523 H         1 UNK         0.0781 
    110 H110      -78.4988   26.2422  -71.4403 H         1 UNK         0.0836 
    111 H111      -77.3815   26.5416  -70.1430 H         1 UNK         0.0836 
    112 H112      -77.9787   22.9362  -75.0148 H         1 UNK         0.3022 
    113 H113      -77.0796   21.6485  -78.1376 H         1 UNK         0.0747 
    114 H114      -77.5872   19.3644  -77.3101 H         1 UNK         0.0793 
    115 H115      -75.9824   19.8457  -76.7879 H         1 UNK         0.0793 
    116 H116      -77.3169   19.8775  -75.6433 H         1 UNK         0.0793 
    117 H117      -79.3345   21.0251  -76.5672 H         1 UNK         0.3047 
    118 H118      -81.3780   23.4771  -77.8487 H         1 UNK         0.0822 
    119 H119      -82.6826   21.6771  -76.8077 H         1 UNK         0.0807 
    120 H120      -81.2713   21.0417  -75.9777 H         1 UNK         0.0807 
    121 H121      -81.3815   20.9612  -77.7365 H         1 UNK         0.0807 
    122 H122      -81.9031   24.5523  -75.9670 H         1 UNK         0.2946 
    123 H123      -82.4631   24.5108  -73.6002 H         1 UNK         0.1144 
    124 H124      -81.5345   24.7410  -71.3207 H         1 UNK         0.0793 
    125 H125      -79.9506   24.1974  -71.8717 H         1 UNK         0.0793 
    126 H126      -81.3192   23.0973  -71.8968 H         1 UNK         0.0793 
    127 H127      -80.3453   26.3529  -72.9738 H         1 UNK         0.2896 
@<TRIPOS>BOND
     1    1    2 1    
     2    1   67 1    
     3    1   68 1    
     4    1   69 1    
     5    2    3 2    
     6    2    4 am   BACKBONE|DICT|INTERRES
     7    4    5 1    
     8    4   70 1    
     9    5    6 1    
    10    5   65 1    
    11    5   71 1    
    12    6    7 1    
    13    6   72 1    
    14    6   73 1    
    15    7    8 1    
    16    8    9 1    
    17    8   74 1    
    18    8   75 1    
    19    9   10 ar   
    20    9   14 ar   
    21   10   11 ar   
    22   10   76 1    
    23   11   12 ar   
    24   11   48 1    
    25   12   13 ar   
    26   12   77 1    
    27   13   14 ar   
    28   13   15 1    
    29   14   78 1    
    30   15   16 1    
    31   15   79 1    
    32   15   80 1    
    33   16   17 1    
    34   17   18 1    
    35   17   81 1    
    36   17   82 1    
    37   18   19 1    
    38   18   22 1    
    39   18   83 1    
    40   19   20 am   BACKBONE|DICT|INTERRES
    41   19   21 2    
    42   20   84 1    
    43   20   85 1    
    44   22   23 am   BACKBONE|DICT|INTERRES
    45   22   86 1    
    46   23   24 2    
    47   23   25 1    
    48   25   26 1    
    49   25   27 1    
    50   25   87 1    
    51   26   88 1    
    52   26   89 1    
    53   26   90 1    
    54   27   28 am   BACKBONE|DICT|INTERRES
    55   27   91 1    
    56   28   29 2    
    57   28   30 1    
    58   30   31 1    
    59   30   32 1    
    60   30   92 1    
    61   31   93 1    
    62   31   94 1    
    63   31   95 1    
    64   32   33 am   BACKBONE|DICT|INTERRES
    65   32   96 1    
    66   33   34 2    
    67   33   35 1    
    68   35   36 1    
    69   35   37 1    
    70   35   97 1    
    71   36   98 1    
    72   36   99 1    
    73   36  100 1    
    74   37   38 am   BACKBONE|DICT|INTERRES
    75   37  101 1    
    76   38   39 2    
    77   38   40 1    
    78   40   41 1    
    79   40   42 1    
    80   40  102 1    
    81   41  103 1    
    82   41  104 1    
    83   41  105 1    
    84   42   43 am   BACKBONE|DICT|INTERRES
    85   42  106 1    
    86   43   44 2    
    87   43   45 1    
    88   45   46 1    
    89   45   49 1    
    90   45  107 1    
    91   46   47 1    
    92   46  108 1    
    93   46  109 1    
    94   47   48 1    
    95   48  110 1    
    96   48  111 1    
    97   49   50 am   BACKBONE|DICT|INTERRES
    98   49  112 1    
    99   50   51 2    
   100   50   52 1    
   101   52   53 1    
   102   52   54 1    
   103   52  113 1    
   104   53  114 1    
   105   53  115 1    
   106   53  116 1    
   107   54   55 am   BACKBONE|DICT|INTERRES
   108   54  117 1    
   109   55   56 2    
   110   55   57 1    
   111   57   58 1    
   112   57   59 1    
   113   57  118 1    
   114   58  119 1    
   115   58  120 1    
   116   58  121 1    
   117   59   60 am   BACKBONE|DICT|INTERRES
   118   59  122 1    
   119   60   61 2    
   120   60   62 1    
   121   62   63 1    
   122   62   64 1    
   123   62  123 1    
   124   63  124 1    
   125   63  125 1    
   126   63  126 1    
   127   64   65 am   BACKBONE|DICT|INTERRES
   128   64  127 1    
   129   65   66 2    
@<TRIPOS>SUBSTRUCTURE
     1 UNK         1 GROUP             0       ****    0 ROOT    
