@<TRIPOS>MOLECULE
3R135
127   129    1
SMALL
USER_CHARGES


@<TRIPOS>ATOM
      1 CA        -85.7406   29.6042  -73.5629 C.3       0 UNK        -0.1998 
      2 C         -84.5763   28.6312  -73.4482 C.2       0 UNK         0.4909 
      3 O         -84.7973   27.4477  -73.1881 O.2       0 UNK        -0.5240 
      4 N         -83.3456   29.1283  -73.6386 N.am      1 UNK        -0.4739 
      5 CA        -82.0811   28.3761  -73.6019 C.3       1 UNK         0.0864 
      6 C6        -81.7506   27.7818  -72.1978 C.3       11 UNK        -0.0881 
      7 S7        -81.7793   29.0512  -70.8802 S.3       11 UNK        -0.2682 
      8 C8        -80.2428   28.7045  -69.9501 C.3       11 UNK         0.0289 
      9 C9        -78.9272   28.9478  -70.6945 C.ar      11 UNK        -0.0687 
     10 C10       -78.8562   29.6534  -71.9035 C.ar      11 UNK        -0.0823 
     11 C11       -77.6395   29.8006  -72.5750 C.ar      11 UNK        -0.0830 
     12 C12       -76.4712   29.3047  -71.9952 C.ar      11 UNK        -0.1021 
     13 C13       -76.5177   28.6226  -70.7777 C.ar      11 UNK        -0.0753 
     14 C14       -77.7473   28.4404  -70.1381 C.ar      11 UNK        -0.0933 
     15 C15       -75.2328   28.0859  -70.1677 C.3       11 UNK         0.0166 
     16 S16       -74.4807   26.8310  -71.2486 S.3       11 UNK        -0.2615 
     17 C17       -72.7026   27.1317  -70.9748 C.3       11 UNK        -0.0865 
     18 CA        -72.1498   28.3722  -71.7319 C.3       10 UNK         0.0862 
     19 C         -70.6195   28.5278  -71.4805 C.2       10 UNK         0.5551 
     20 N         -69.7581   28.4555  -72.4896 N.am      10 UNK        -0.7319 
     21 O         -70.2069   28.7203  -70.3395 O.2       10 UNK        -0.5018 
     22 N         -72.5446   28.3809  -73.1489 N.am      10 UNK        -0.4509 
     23 C         -72.4901   29.4468  -73.9592 C.2       10 UNK         0.4899 
     24 O         -72.2084   30.5834  -73.5775 O.2       10 UNK        -0.4839 
     25 CA        -72.7893   29.1848  -75.4493 C.3       9 UNK         0.0222 
     26 CB        -72.1885   30.2551  -76.3841 C.3       9 UNK        -0.1966 
     27 N         -72.4013   27.8329  -75.8757 N.am      9 UNK        -0.4218 
     28 C         -71.1747   27.2897  -75.8283 C.2       9 UNK         0.5020 
     29 O         -70.1650   27.9106  -75.4926 O.2       9 UNK        -0.5274 
     30 CA        -71.0468   25.7903  -76.1361 C.3       8 UNK         0.0270 
     31 CB        -70.9054   24.9988  -74.8229 C.3       8 UNK        -0.1976 
     32 N         -72.1878   25.2528  -76.8869 N.am      8 UNK        -0.4313 
     33 C         -72.0915   24.6423  -78.0750 C.2       8 UNK         0.5041 
     34 O         -71.0397   24.5322  -78.7074 O.2       8 UNK        -0.5577 
     35 CA        -73.3697   24.0148  -78.6551 C.3       7 UNK         0.0284 
     36 CB        -73.5858   22.6032  -78.0859 C.3       7 UNK        -0.1958 
     37 N         -74.5810   24.8128  -78.4548 N.am      7 UNK        -0.4454 
     38 C         -74.8625   25.9331  -79.1351 C.2       7 UNK         0.5089 
     39 O         -74.0804   26.4801  -79.9129 O.2       7 UNK        -0.5125 
     40 CA        -76.2649   26.5275  -78.9378 C.3       6 UNK         0.0408 
     41 CB        -77.3103   25.7252  -79.7302 C.3       6 UNK        -0.1791 
     42 N         -76.6394   26.5509  -77.5256 N.am      6 UNK        -0.4762 
     43 C         -76.4072   27.5842  -76.7042 C.2       6 UNK         0.5007 
     44 O         -75.8948   28.6418  -77.0698 O.2       6 UNK        -0.5032 
     45 CA        -76.7787   27.3959  -75.2158 C.3       5 UNK         0.0783 
     46 C46       -78.2383   27.8289  -74.9320 C.3       11 UNK        -0.0857 
     47 S47       -78.6153   29.6021  -75.1862 S.3       11 UNK        -0.2512 
     48 C48       -77.5863   30.4612  -73.9448 C.3       11 UNK         0.0225 
     49 N         -76.5490   26.0219  -74.7501 N.am      5 UNK        -0.4615 
     50 C         -75.3627   25.3963  -74.7550 C.2       4 UNK         0.5053 
     51 O         -74.3113   25.9352  -75.0965 O.2       4 UNK        -0.5105 
     52 CA        -75.3378   23.8990  -74.4008 C.3       4 UNK         0.0263 
     53 CB        -74.9863   23.6940  -72.9212 C.3       4 UNK        -0.1981 
     54 N         -76.5827   23.1919  -74.7088 N.am      4 UNK        -0.4224 
     55 C         -77.1603   23.1148  -75.9160 C.2       3 UNK         0.4895 
     56 O         -76.6887   23.6225  -76.9350 O.2       3 UNK        -0.5091 
     57 CA        -78.5203   22.4012  -75.9966 C.3       3 UNK         0.0250 
     58 CB        -78.7671   21.3969  -74.8475 C.3       3 UNK        -0.1996 
     59 N         -79.6347   23.3531  -76.0914 N.am      3 UNK        -0.4254 
     60 C         -79.9329   24.3459  -75.2388 C.2       2 UNK         0.5004 
     61 O         -79.2500   24.6483  -74.2545 O.2       2 UNK        -0.5226 
     62 CA        -81.2188   25.1289  -75.5368 C.3       2 UNK         0.0269 
     63 CB        -82.4628   24.2189  -75.4898 C.3       2 UNK        -0.1926 
     64 N         -81.3693   26.2027  -74.5561 N.am      2 UNK        -0.4687 
     65 C         -82.0156   27.3550  -74.7656 C.2       1 UNK         0.5165 
     66 O         -82.5370   27.6391  -75.8478 O.2       1 UNK        -0.5079 
     67 H67       -86.4175   29.2871  -74.3559 H         1 UNK         0.0900 
     68 H68       -85.4063   30.6170  -73.7872 H         1 UNK         0.0900 
     69 H69       -86.2995   29.6315  -72.6278 H         1 UNK         0.0900 
     70 H70       -83.2488   30.1063  -73.8723 H         1 UNK         0.2959 
     71 H71       -81.3047   29.1044  -73.8359 H         1 UNK         0.1079 
     72 H72       -82.4588   26.9955  -71.9313 H         1 UNK         0.0837 
     73 H73       -80.7640   27.3159  -72.2020 H         1 UNK         0.0837 
     74 H74       -80.2451   29.3240  -69.0524 H         1 UNK         0.0685 
     75 H75       -80.2793   27.6686  -69.6088 H         1 UNK         0.0685 
     76 H76       -79.7463   30.0668  -72.3528 H         1 UNK         0.1434 
     77 H77       -75.5212   29.4257  -72.4982 H         1 UNK         0.1329 
     78 H78       -77.7870   27.9016  -69.2011 H         1 UNK         0.1335 
     79 H79       -74.5473   28.9197  -70.0146 H         1 UNK         0.0680 
     80 H80       -75.4125   27.6474  -69.1850 H         1 UNK         0.0680 
     81 H81       -72.5266   27.2262  -69.9013 H         1 UNK         0.1032 
     82 H82       -72.1673   26.2330  -71.2874 H         1 UNK         0.1032 
     83 H83       -72.6055   29.2553  -71.2815 H         1 UNK         0.0461 
     84 H84       -70.0724   28.3141  -73.4421 H         1 UNK         0.3453 
     85 H85       -68.7742   28.5618  -72.3009 H         1 UNK         0.3453 
     86 H86       -72.8192   27.4905  -73.5382 H         1 UNK         0.2984 
     87 H87       -73.8731   29.2369  -75.5431 H         1 UNK         0.0554 
     88 H88       -72.4307   30.0494  -77.4267 H         1 UNK         0.0847 
     89 H89       -71.1032   30.3097  -76.2947 H         1 UNK         0.0847 
     90 H90       -72.5835   31.2446  -76.1510 H         1 UNK         0.0847 
     91 H91       -73.1781   27.2035  -76.0448 H         1 UNK         0.3141 
     92 H92       -70.1217   25.6702  -76.7036 H         1 UNK         0.0743 
     93 H93       -71.7970   25.0828  -74.2001 H         1 UNK         0.0784 
     94 H94       -70.7326   23.9403  -75.0173 H         1 UNK         0.0784 
     95 H95       -70.0609   25.3608  -74.2344 H         1 UNK         0.0784 
     96 H96       -73.0924   25.3059  -76.4281 H         1 UNK         0.3213 
     97 H97       -73.2170   23.9134  -79.7322 H         1 UNK         0.0855 
     98 H98       -73.7520   22.6190  -77.0096 H         1 UNK         0.0814 
     99 H99       -72.7161   21.9712  -78.2711 H         1 UNK         0.0814 
    100 H100      -74.4441   22.1158  -78.5489 H         1 UNK         0.0814 
    101 H101      -75.3057   24.4092  -77.8644 H         1 UNK         0.3105 
    102 H102      -76.2592   27.5445  -79.3363 H         1 UNK         0.0547 
    103 H103      -77.0582   25.6991  -80.7911 H         1 UNK         0.0837 
    104 H104      -77.3808   24.6923  -79.3871 H         1 UNK         0.0837 
    105 H105      -78.3001   26.1736  -79.6445 H         1 UNK         0.0837 
    106 H106      -76.9918   25.6838  -77.1370 H         1 UNK         0.3020 
    107 H107      -76.1081   28.0337  -74.6379 H         1 UNK         0.1245 
    108 H108      -78.5112   27.5673  -73.9087 H         1 UNK         0.0781 
    109 H109      -78.9195   27.2600  -75.5659 H         1 UNK         0.0781 
    110 H110      -77.9251   31.4944  -73.8577 H         1 UNK         0.0836 
    111 H111      -76.5611   30.5078  -74.3155 H         1 UNK         0.0836 
    112 H112      -77.3700   25.4988  -74.4621 H         1 UNK         0.3022 
    113 H113      -74.5481   23.4413  -74.9973 H         1 UNK         0.0747 
    114 H114      -74.8890   22.6361  -72.6772 H         1 UNK         0.0793 
    115 H115      -74.0339   24.1678  -72.6792 H         1 UNK         0.0793 
    116 H116      -75.7429   24.1242  -72.2635 H         1 UNK         0.0793 
    117 H117      -77.0774   22.7879  -73.9267 H         1 UNK         0.3047 
    118 H118      -78.5087   21.8364  -76.9302 H         1 UNK         0.0822 
    119 H119      -79.6729   20.8179  -75.0279 H         1 UNK         0.0807 
    120 H120      -78.8838   21.8874  -73.8805 H         1 UNK         0.0807 
    121 H121      -77.9462   20.6832  -74.7632 H         1 UNK         0.0807 
    122 H122      -80.2413   23.2181  -76.8884 H         1 UNK         0.2946 
    123 H123      -81.1166   25.5601  -76.5355 H         1 UNK         0.1144 
    124 H124      -82.5714   23.7391  -74.5162 H         1 UNK         0.0793 
    125 H125      -82.4128   23.4296  -76.2404 H         1 UNK         0.0793 
    126 H126      -83.3749   24.7836  -75.6844 H         1 UNK         0.0793 
    127 H127      -80.8867   26.0353  -73.6825 H         1 UNK         0.2896 
@<TRIPOS>BOND
     1    1    2 1    
     2    1   67 1    
     3    1   68 1    
     4    1   69 1    
     5    2    3 2    
     6    2    4 am   BACKBONE|DICT|INTERRES
     7    4    5 1    
     8    4   70 1    
     9    5    6 1    
    10    5   65 1    
    11    5   71 1    
    12    6    7 1    
    13    6   72 1    
    14    6   73 1    
    15    7    8 1    
    16    8    9 1    
    17    8   74 1    
    18    8   75 1    
    19    9   10 ar   
    20    9   14 ar   
    21   10   11 ar   
    22   10   76 1    
    23   11   12 ar   
    24   11   48 1    
    25   12   13 ar   
    26   12   77 1    
    27   13   14 ar   
    28   13   15 1    
    29   14   78 1    
    30   15   16 1    
    31   15   79 1    
    32   15   80 1    
    33   16   17 1    
    34   17   18 1    
    35   17   81 1    
    36   17   82 1    
    37   18   19 1    
    38   18   22 1    
    39   18   83 1    
    40   19   20 am   BACKBONE|DICT|INTERRES
    41   19   21 2    
    42   20   84 1    
    43   20   85 1    
    44   22   23 am   BACKBONE|DICT|INTERRES
    45   22   86 1    
    46   23   24 2    
    47   23   25 1    
    48   25   26 1    
    49   25   27 1    
    50   25   87 1    
    51   26   88 1    
    52   26   89 1    
    53   26   90 1    
    54   27   28 am   BACKBONE|DICT|INTERRES
    55   27   91 1    
    56   28   29 2    
    57   28   30 1    
    58   30   31 1    
    59   30   32 1    
    60   30   92 1    
    61   31   93 1    
    62   31   94 1    
    63   31   95 1    
    64   32   33 am   BACKBONE|DICT|INTERRES
    65   32   96 1    
    66   33   34 2    
    67   33   35 1    
    68   35   36 1    
    69   35   37 1    
    70   35   97 1    
    71   36   98 1    
    72   36   99 1    
    73   36  100 1    
    74   37   38 am   BACKBONE|DICT|INTERRES
    75   37  101 1    
    76   38   39 2    
    77   38   40 1    
    78   40   41 1    
    79   40   42 1    
    80   40  102 1    
    81   41  103 1    
    82   41  104 1    
    83   41  105 1    
    84   42   43 am   BACKBONE|DICT|INTERRES
    85   42  106 1    
    86   43   44 2    
    87   43   45 1    
    88   45   46 1    
    89   45   49 1    
    90   45  107 1    
    91   46   47 1    
    92   46  108 1    
    93   46  109 1    
    94   47   48 1    
    95   48  110 1    
    96   48  111 1    
    97   49   50 am   BACKBONE|DICT|INTERRES
    98   49  112 1    
    99   50   51 2    
   100   50   52 1    
   101   52   53 1    
   102   52   54 1    
   103   52  113 1    
   104   53  114 1    
   105   53  115 1    
   106   53  116 1    
   107   54   55 am   BACKBONE|DICT|INTERRES
   108   54  117 1    
   109   55   56 2    
   110   55   57 1    
   111   57   58 1    
   112   57   59 1    
   113   57  118 1    
   114   58  119 1    
   115   58  120 1    
   116   58  121 1    
   117   59   60 am   BACKBONE|DICT|INTERRES
   118   59  122 1    
   119   60   61 2    
   120   60   62 1    
   121   62   63 1    
   122   62   64 1    
   123   62  123 1    
   124   63  124 1    
   125   63  125 1    
   126   63  126 1    
   127   64   65 am   BACKBONE|DICT|INTERRES
   128   64  127 1    
   129   65   66 2    
@<TRIPOS>SUBSTRUCTURE
     1 UNK         1 GROUP             0       ****    0 ROOT    
