@<TRIPOS>MOLECULE
3R135
127   129    1
SMALL
USER_CHARGES


@<TRIPOS>ATOM
      1 CA        -84.7444   24.9717  -73.5169 C.3       0 UNK        -0.1998 
      2 C         -83.9948   26.2789  -73.3058 C.2       0 UNK         0.4909 
      3 O         -84.6212   27.3246  -73.1316 O.2       0 UNK        -0.5240 
      4 N         -82.6599   26.2278  -73.3217 N.am      1 UNK        -0.4739 
      5 CA        -81.7615   27.3710  -73.1815 C.3       1 UNK         0.0864 
      6 C6        -81.4867   27.6996  -71.6917 C.3       11 UNK        -0.0881 
      7 S7        -80.7406   29.3487  -71.4468 S.3       11 UNK        -0.2682 
      8 C8        -79.5791   29.0384  -70.0793 C.3       11 UNK         0.0289 
      9 C9        -78.2931   28.3555  -70.5305 C.ar      11 UNK        -0.0687 
     10 C10       -78.1366   26.9727  -70.3851 C.ar      11 UNK        -0.0823 
     11 C11       -76.9298   26.3509  -70.7226 C.ar      11 UNK        -0.0830 
     12 C12       -75.8711   27.1294  -71.2016 C.ar      11 UNK        -0.1021 
     13 C13       -76.0158   28.5101  -71.3605 C.ar      11 UNK        -0.0753 
     14 C14       -77.2318   29.1175  -71.0314 C.ar      11 UNK        -0.0933 
     15 C15       -74.8420   29.3403  -71.8559 C.3       11 UNK         0.0166 
     16 S16       -74.7692   29.3542  -73.6727 S.3       11 UNK        -0.2615 
     17 C17       -74.9539   31.1345  -74.0617 C.3       11 UNK        -0.0865 
     18 CA        -73.6268   31.8172  -74.4856 C.3       10 UNK         0.0862 
     19 C         -72.6874   32.0756  -73.2693 C.2       10 UNK         0.5551 
     20 N         -71.4609   31.5680  -73.2516 N.am      10 UNK        -0.7319 
     21 O         -73.0795   32.7608  -72.3280 O.2       10 UNK        -0.5018 
     22 N         -73.0140   31.1131  -75.6230 N.am      10 UNK        -0.4509 
     23 C         -72.1089   31.6129  -76.4703 C.2       10 UNK         0.4899 
     24 O         -71.7155   32.7798  -76.4404 O.2       10 UNK        -0.4839 
     25 CA        -71.5243   30.6183  -77.4954 C.3       9 UNK         0.0222 
     26 CB        -70.5143   31.2778  -78.4536 C.3       9 UNK        -0.1966 
     27 N         -70.8774   29.4856  -76.8234 N.am      9 UNK        -0.4218 
     28 C         -71.5186   28.4375  -76.2910 C.2       9 UNK         0.5020 
     29 O         -72.7378   28.2642  -76.3790 O.2       9 UNK        -0.5274 
     30 CA        -70.6686   27.4581  -75.4748 C.3       8 UNK         0.0270 
     31 CB        -70.1601   28.1238  -74.1782 C.3       8 UNK        -0.1976 
     32 N         -71.4955   26.3011  -75.1486 N.am      8 UNK        -0.4313 
     33 C         -71.0605   25.1154  -74.7120 C.2       8 UNK         0.5041 
     34 O         -69.8703   24.8384  -74.5536 O.2       8 UNK        -0.5577 
     35 CA        -72.1260   24.0582  -74.3779 C.3       7 UNK         0.0284 
     36 CB        -72.4506   24.0855  -72.8754 C.3       7 UNK        -0.1958 
     37 N         -73.3689   24.2086  -75.1397 N.am      7 UNK        -0.4454 
     38 C         -73.5172   23.8825  -76.4315 C.2       7 UNK         0.5089 
     39 O         -72.5903   23.4820  -77.1376 O.2       7 UNK        -0.5125 
     40 CA        -74.9319   24.0243  -77.0376 C.3       6 UNK         0.0408 
     41 CB        -75.2003   22.9969  -78.1566 C.3       6 UNK        -0.1791 
     42 N         -76.0254   24.0046  -76.0559 N.am      6 UNK        -0.4762 
     43 C         -76.3331   23.0266  -75.1877 C.2       6 UNK         0.5007 
     44 O         -75.7119   21.9673  -75.0918 O.2       6 UNK        -0.5032 
     45 CA        -77.5496   23.2809  -74.2741 C.3       5 UNK         0.0783 
     46 C46       -77.2952   24.4233  -73.2607 C.3       11 UNK        -0.0857 
     47 S47       -76.0710   23.9965  -71.9821 S.3       11 UNK        -0.2512 
     48 C48       -76.7640   24.8462  -70.5241 C.3       11 UNK         0.0225 
     49 N         -78.7558   23.5508  -75.0536 N.am      5 UNK        -0.4615 
     50 C         -79.3742   22.6919  -75.8739 C.2       4 UNK         0.5053 
     51 O         -79.0240   21.5246  -76.0461 O.2       4 UNK        -0.5105 
     52 CA        -80.5988   23.2339  -76.6271 C.3       4 UNK         0.0263 
     53 CB        -81.8629   23.1246  -75.7584 C.3       4 UNK        -0.1981 
     54 N         -80.4002   24.6270  -77.0326 N.am      4 UNK        -0.4224 
     55 C         -79.7196   25.0018  -78.1249 C.2       3 UNK         0.4895 
     56 O         -79.2604   24.2132  -78.9517 O.2       3 UNK        -0.5091 
     57 CA        -79.5128   26.5120  -78.3367 C.3       3 UNK         0.0250 
     58 CB        -80.6596   27.0993  -79.1753 C.3       3 UNK        -0.1996 
     59 N         -79.3876   27.2696  -77.0882 N.am      3 UNK        -0.4254 
     60 C         -78.3506   27.1761  -76.2438 C.2       2 UNK         0.5004 
     61 O         -77.3890   26.4284  -76.4133 O.2       2 UNK        -0.5226 
     62 CA        -78.4127   28.0428  -74.9768 C.3       2 UNK         0.0269 
     63 CB        -77.9622   29.4744  -75.2990 C.3       2 UNK        -0.1926 
     64 N         -79.7273   28.0960  -74.3303 N.am      2 UNK        -0.4687 
     65 C         -80.4770   27.0491  -73.9636 C.2       1 UNK         0.5165 
     66 O         -80.1965   25.8747  -74.2233 O.2       1 UNK        -0.5079 
     67 H67       -85.3310   25.0197  -74.4339 H         1 UNK         0.0900 
     68 H68       -84.0681   24.1203  -73.5901 H         1 UNK         0.0900 
     69 H69       -85.4251   24.7912  -72.6854 H         1 UNK         0.0900 
     70 H70       -82.1752   25.3590  -73.5084 H         1 UNK         0.2959 
     71 H71       -82.2301   28.2338  -73.6613 H         1 UNK         0.1079 
     72 H72       -82.4241   27.6953  -71.1333 H         1 UNK         0.0837 
     73 H73       -80.8703   26.9242  -71.2362 H         1 UNK         0.0837 
     74 H74       -79.3325   29.9939  -69.6141 H         1 UNK         0.0685 
     75 H75       -80.0762   28.4507  -69.3058 H         1 UNK         0.0685 
     76 H76       -78.9482   26.3821  -69.9834 H         1 UNK         0.1434 
     77 H77       -74.9292   26.6595  -71.4500 H         1 UNK         0.1329 
     78 H78       -77.3449   30.1874  -71.1416 H         1 UNK         0.1335 
     79 H79       -73.9081   28.9239  -71.4754 H         1 UNK         0.0680 
     80 H80       -74.8990   30.3533  -71.4559 H         1 UNK         0.0680 
     81 H81       -75.4257   31.6651  -73.2330 H         1 UNK         0.1032 
     82 H82       -75.6623   31.2204  -74.8854 H         1 UNK         0.1032 
     83 H83       -73.8919   32.8124  -74.8475 H         1 UNK         0.0461 
     84 H84       -71.1279   31.0229  -74.0281 H         1 UNK         0.3453 
     85 H85       -70.8625   31.7484  -72.4613 H         1 UNK         0.3453 
     86 H86       -73.2477   30.1283  -75.7063 H         1 UNK         0.2984 
     87 H87       -72.3562   30.2464  -78.0974 H         1 UNK         0.0554 
     88 H88       -70.1517   30.5686  -79.1979 H         1 UNK         0.0847 
     89 H89       -69.6502   31.6774  -77.9213 H         1 UNK         0.0847 
     90 H90       -70.9739   32.1053  -78.9959 H         1 UNK         0.0847 
     91 H91       -69.8789   29.5593  -76.6868 H         1 UNK         0.3141 
     92 H92       -69.8251   27.1346  -76.0882 H         1 UNK         0.0743 
     93 H93       -69.5315   28.9887  -74.3920 H         1 UNK         0.0784 
     94 H94       -70.9867   28.4640  -73.5523 H         1 UNK         0.0784 
     95 H95       -69.5573   27.4361  -73.5850 H         1 UNK         0.0784 
     96 H96       -72.4851   26.4493  -75.3112 H         1 UNK         0.3213 
     97 H97       -71.6989   23.0808  -74.6141 H         1 UNK         0.0855 
     98 H98       -71.5451   23.9734  -72.2773 H         1 UNK         0.0814 
     99 H99       -73.1193   23.2695  -72.6008 H         1 UNK         0.0814 
    100 H100      -72.9231   25.0230  -72.5792 H         1 UNK         0.0814 
    101 H101      -74.1858   24.5181  -74.6335 H         1 UNK         0.3105 
    102 H102      -74.9616   25.0164  -77.4903 H         1 UNK         0.0547 
    103 H103      -74.4802   23.1017  -78.9689 H         1 UNK         0.0837 
    104 H104      -75.1299   21.9726  -77.7894 H         1 UNK         0.0837 
    105 H105      -76.1929   23.1316  -78.5870 H         1 UNK         0.0837 
    106 H106      -76.6098   24.8414  -76.0682 H         1 UNK         0.3020 
    107 H107      -77.7332   22.3613  -73.7136 H         1 UNK         0.1245 
    108 H108      -78.2311   24.6709  -72.7570 H         1 UNK         0.0781 
    109 H109      -76.9778   25.3401  -73.7600 H         1 UNK         0.0781 
    110 H110      -76.1037   24.6761  -69.6729 H         1 UNK         0.0836 
    111 H111      -77.7175   24.3800  -70.2709 H         1 UNK         0.0836 
    112 H112      -79.1675   24.4710  -74.9261 H         1 UNK         0.3022 
    113 H113      -80.7469   22.6200  -77.5184 H         1 UNK         0.0747 
    114 H114      -82.7411   23.4990  -76.2848 H         1 UNK         0.0793 
    115 H115      -82.0622   22.0853  -75.4941 H         1 UNK         0.0793 
    116 H116      -81.7644   23.6821  -74.8273 H         1 UNK         0.0793 
    117 H117      -80.6974   25.3393  -76.3797 H         1 UNK         0.3047 
    118 H118      -78.5830   26.6367  -78.8963 H         1 UNK         0.0822 
    119 H119      -80.4825   28.1490  -79.4106 H         1 UNK         0.0807 
    120 H120      -81.6177   27.0266  -78.6591 H         1 UNK         0.0807 
    121 H121      -80.7597   26.5696  -80.1239 H         1 UNK         0.0807 
    122 H122      -80.1335   27.9111  -76.8611 H         1 UNK         0.2946 
    123 H123      -77.7111   27.6190  -74.2545 H         1 UNK         0.1144 
    124 H124      -77.0005   29.4704  -75.8139 H         1 UNK         0.0793 
    125 H125      -77.8437   30.0625  -74.3887 H         1 UNK         0.0793 
    126 H126      -78.6738   29.9908  -75.9442 H         1 UNK         0.0793 
    127 H127      -80.0353   29.0136  -74.0395 H         1 UNK         0.2896 
@<TRIPOS>BOND
     1    1    2 1    
     2    1   67 1    
     3    1   68 1    
     4    1   69 1    
     5    2    3 2    
     6    2    4 am   BACKBONE|DICT|INTERRES
     7    4    5 1    
     8    4   70 1    
     9    5    6 1    
    10    5   65 1    
    11    5   71 1    
    12    6    7 1    
    13    6   72 1    
    14    6   73 1    
    15    7    8 1    
    16    8    9 1    
    17    8   74 1    
    18    8   75 1    
    19    9   10 ar   
    20    9   14 ar   
    21   10   11 ar   
    22   10   76 1    
    23   11   12 ar   
    24   11   48 1    
    25   12   13 ar   
    26   12   77 1    
    27   13   14 ar   
    28   13   15 1    
    29   14   78 1    
    30   15   16 1    
    31   15   79 1    
    32   15   80 1    
    33   16   17 1    
    34   17   18 1    
    35   17   81 1    
    36   17   82 1    
    37   18   19 1    
    38   18   22 1    
    39   18   83 1    
    40   19   20 am   BACKBONE|DICT|INTERRES
    41   19   21 2    
    42   20   84 1    
    43   20   85 1    
    44   22   23 am   BACKBONE|DICT|INTERRES
    45   22   86 1    
    46   23   24 2    
    47   23   25 1    
    48   25   26 1    
    49   25   27 1    
    50   25   87 1    
    51   26   88 1    
    52   26   89 1    
    53   26   90 1    
    54   27   28 am   BACKBONE|DICT|INTERRES
    55   27   91 1    
    56   28   29 2    
    57   28   30 1    
    58   30   31 1    
    59   30   32 1    
    60   30   92 1    
    61   31   93 1    
    62   31   94 1    
    63   31   95 1    
    64   32   33 am   BACKBONE|DICT|INTERRES
    65   32   96 1    
    66   33   34 2    
    67   33   35 1    
    68   35   36 1    
    69   35   37 1    
    70   35   97 1    
    71   36   98 1    
    72   36   99 1    
    73   36  100 1    
    74   37   38 am   BACKBONE|DICT|INTERRES
    75   37  101 1    
    76   38   39 2    
    77   38   40 1    
    78   40   41 1    
    79   40   42 1    
    80   40  102 1    
    81   41  103 1    
    82   41  104 1    
    83   41  105 1    
    84   42   43 am   BACKBONE|DICT|INTERRES
    85   42  106 1    
    86   43   44 2    
    87   43   45 1    
    88   45   46 1    
    89   45   49 1    
    90   45  107 1    
    91   46   47 1    
    92   46  108 1    
    93   46  109 1    
    94   47   48 1    
    95   48  110 1    
    96   48  111 1    
    97   49   50 am   BACKBONE|DICT|INTERRES
    98   49  112 1    
    99   50   51 2    
   100   50   52 1    
   101   52   53 1    
   102   52   54 1    
   103   52  113 1    
   104   53  114 1    
   105   53  115 1    
   106   53  116 1    
   107   54   55 am   BACKBONE|DICT|INTERRES
   108   54  117 1    
   109   55   56 2    
   110   55   57 1    
   111   57   58 1    
   112   57   59 1    
   113   57  118 1    
   114   58  119 1    
   115   58  120 1    
   116   58  121 1    
   117   59   60 am   BACKBONE|DICT|INTERRES
   118   59  122 1    
   119   60   61 2    
   120   60   62 1    
   121   62   63 1    
   122   62   64 1    
   123   62  123 1    
   124   63  124 1    
   125   63  125 1    
   126   63  126 1    
   127   64   65 am   BACKBONE|DICT|INTERRES
   128   64  127 1    
   129   65   66 2    
@<TRIPOS>SUBSTRUCTURE
     1 UNK         1 GROUP             0       ****    0 ROOT    
