@<TRIPOS>MOLECULE
3R135
127   129    1
SMALL
USER_CHARGES


@<TRIPOS>ATOM
      1 CA        -83.9948   24.2844  -70.5667 C.3       0 UNK        -0.1998 
      2 C         -83.2121   25.2363  -71.4580 C.2       0 UNK         0.4909 
      3 O         -83.7624   25.7651  -72.4246 O.2       0 UNK        -0.5240 
      4 N         -81.9259   25.4509  -71.1535 N.am      1 UNK        -0.4739 
      5 CA        -81.0068   26.3479  -71.8674 C.3       1 UNK         0.0864 
      6 C6        -79.8432   26.8093  -70.9457 C.3       11 UNK        -0.0881 
      7 S7        -80.3978   28.0832  -69.7652 S.3       11 UNK        -0.2682 
      8 C8        -78.9728   29.2333  -69.7526 C.3       11 UNK         0.0289 
      9 C9        -78.5968   29.8701  -71.0956 C.ar      11 UNK        -0.0687 
     10 C10       -79.5026   29.9894  -72.1591 C.ar      11 UNK        -0.0823 
     11 C11       -79.1136   30.5726  -73.3700 C.ar      11 UNK        -0.0830 
     12 C12       -77.8149   31.0718  -73.5043 C.ar      11 UNK        -0.1021 
     13 C13       -76.8998   30.9642  -72.4555 C.ar      11 UNK        -0.0753 
     14 C14       -77.2982   30.3657  -71.2562 C.ar      11 UNK        -0.0933 
     15 C15       -75.4854   31.5045  -72.6220 C.3       11 UNK         0.0166 
     16 S16       -74.4847   30.4624  -73.7320 S.3       11 UNK        -0.2615 
     17 C17       -74.2720   28.9553  -72.7264 C.3       11 UNK        -0.0865 
     18 CA        -72.7959   28.6698  -72.3532 C.3       10 UNK         0.0862 
     19 C         -72.7126   27.4983  -71.3288 C.2       10 UNK         0.5551 
     20 N         -72.1904   26.3297  -71.6839 N.am      10 UNK        -0.7319 
     21 O         -73.1342   27.6583  -70.1864 O.2       10 UNK        -0.5018 
     22 N         -71.9540   28.4899  -73.5473 N.am      10 UNK        -0.4509 
     23 C         -70.6152   28.5251  -73.5383 C.2       10 UNK         0.4899 
     24 O         -69.9552   28.8543  -72.5508 O.2       10 UNK        -0.4839 
     25 CA        -69.8837   28.1265  -74.8394 C.3       9 UNK         0.0222 
     26 CB        -68.4944   27.5173  -74.5559 C.3       9 UNK        -0.1966 
     27 N         -70.6380   27.2410  -75.7397 N.am      9 UNK        -0.4218 
     28 C         -71.1902   26.0492  -75.4647 C.2       9 UNK         0.5020 
     29 O         -71.2174   25.5496  -74.3381 O.2       9 UNK        -0.5274 
     30 CA        -71.8233   25.3052  -76.6573 C.3       8 UNK         0.0270 
     31 CB        -72.6175   24.0555  -76.2409 C.3       8 UNK        -0.1976 
     32 N         -72.6853   26.1773  -77.4627 N.am      8 UNK        -0.4313 
     33 C         -72.2515   26.9757  -78.4470 C.2       8 UNK         0.5041 
     34 O         -71.0536   27.1191  -78.6996 O.2       8 UNK        -0.5577 
     35 CA        -73.2849   27.7878  -79.2532 C.3       7 UNK         0.0284 
     36 CB        -72.9187   27.8560  -80.7511 C.3       7 UNK        -0.1958 
     37 N         -74.6833   27.3746  -79.0878 N.am      7 UNK        -0.4454 
     38 C         -75.2646   26.2095  -79.4028 C.2       7 UNK         0.5089 
     39 O         -74.6493   25.2348  -79.8373 O.2       7 UNK        -0.5125 
     40 CA        -76.7975   26.1348  -79.2018 C.3       6 UNK         0.0408 
     41 CB        -77.3609   24.7351  -79.5090 C.3       6 UNK        -0.1791 
     42 N         -77.2401   26.5336  -77.8601 N.am      6 UNK        -0.4762 
     43 C         -77.1987   27.7688  -77.3358 C.2       6 UNK         0.5007 
     44 O         -76.8155   28.7570  -77.9641 O.2       6 UNK        -0.5032 
     45 CA        -77.6003   27.9238  -75.8538 C.3       5 UNK         0.0783 
     46 C46       -79.1007   28.2906  -75.7111 C.3       11 UNK        -0.0857 
     47 S47       -79.4509   30.0384  -76.1029 S.3       11 UNK        -0.2512 
     48 C48       -80.1067   30.6774  -74.5227 C.3       11 UNK         0.0225 
     49 N         -77.2662   26.7483  -75.0423 N.am      5 UNK        -0.4615 
     50 C         -76.0533   26.2022  -74.8696 C.2       4 UNK         0.5053 
     51 O         -75.0263   26.6037  -75.4182 O.2       4 UNK        -0.5105 
     52 CA        -75.9895   24.9933  -73.9228 C.3       4 UNK         0.0263 
     53 CB        -76.0140   25.4455  -72.4532 C.3       4 UNK        -0.1981 
     54 N         -77.1100   24.0866  -74.1679 N.am      4 UNK        -0.4224 
     55 C         -77.1020   23.0839  -75.0554 C.2       3 UNK         0.4895 
     56 O         -76.1121   22.7522  -75.7077 O.2       3 UNK        -0.5091 
     57 CA        -78.4236   22.3175  -75.2572 C.3       3 UNK         0.0250 
     58 CB        -78.4853   21.0993  -74.3218 C.3       3 UNK        -0.1996 
     59 N         -79.6265   23.1359  -75.0658 N.am      3 UNK        -0.4254 
     60 C         -79.9743   24.1678  -75.8471 C.2       2 UNK         0.5004 
     61 O         -79.3097   24.5552  -76.8080 O.2       2 UNK        -0.5226 
     62 CA        -81.2617   24.9249  -75.4725 C.3       2 UNK         0.0269 
     63 CB        -82.4982   24.1419  -75.9427 C.3       2 UNK        -0.1926 
     64 N         -81.4320   25.2898  -74.0564 N.am      2 UNK        -0.4687 
     65 C         -80.5058   25.7444  -73.1996 C.2       1 UNK         0.5165 
     66 O         -79.2994   25.7242  -73.4361 O.2       1 UNK        -0.5079 
     67 H67       -84.3656   23.4428  -71.1511 H         1 UNK         0.0900 
     68 H68       -84.8498   24.7990  -70.1292 H         1 UNK         0.0900 
     69 H69       -83.3839   23.8911  -69.7544 H         1 UNK         0.0900 
     70 H70       -81.5276   24.9747  -70.3566 H         1 UNK         0.2959 
     71 H71       -81.5663   27.2387  -72.1624 H         1 UNK         0.1079 
     72 H72       -79.4153   25.9669  -70.3997 H         1 UNK         0.0837 
     73 H73       -79.0200   27.2329  -71.5220 H         1 UNK         0.0837 
     74 H74       -79.1872   30.0338  -69.0435 H         1 UNK         0.0685 
     75 H75       -78.1131   28.6922  -69.3537 H         1 UNK         0.0685 
     76 H76       -80.5146   29.6275  -72.0494 H         1 UNK         0.1434 
     77 H77       -77.5092   31.5334  -74.4335 H         1 UNK         0.1329 
     78 H78       -76.5929   30.2870  -70.4399 H         1 UNK         0.1335 
     79 H79       -75.5336   32.5128  -73.0358 H         1 UNK         0.0680 
     80 H80       -74.9831   31.5942  -71.6574 H         1 UNK         0.0680 
     81 H81       -74.8803   29.0349  -71.8247 H         1 UNK         0.1032 
     82 H82       -74.6865   28.1210  -73.2872 H         1 UNK         0.1032 
     83 H83       -72.4219   29.5503  -71.8269 H         1 UNK         0.0461 
     84 H84       -72.1410   25.5874  -71.0054 H         1 UNK         0.3453 
     85 H85       -71.8419   26.1731  -72.6260 H         1 UNK         0.3453 
     86 H86       -72.4287   28.2084  -74.3922 H         1 UNK         0.2984 
     87 H87       -69.7310   29.0550  -75.3911 H         1 UNK         0.0554 
     88 H88       -67.9721   27.2704  -75.4802 H         1 UNK         0.0847 
     89 H89       -68.5699   26.6069  -73.9600 H         1 UNK         0.0847 
     90 H90       -67.8600   28.2145  -74.0071 H         1 UNK         0.0847 
     91 H91       -70.6748   27.5298  -76.7128 H         1 UNK         0.3141 
     92 H92       -70.9938   24.9590  -77.2776 H         1 UNK         0.0743 
     93 H93       -71.9936   23.3590  -75.6794 H         1 UNK         0.0784 
     94 H94       -73.4662   24.3147  -75.6130 H         1 UNK         0.0784 
     95 H95       -72.9994   23.5200  -77.1104 H         1 UNK         0.0784 
     96 H96       -73.6703   26.1833  -77.2257 H         1 UNK         0.3213 
     97 H97       -73.2306   28.8029  -78.8570 H         1 UNK         0.0855 
     98 H98       -72.8962   26.8655  -81.2064 H         1 UNK         0.0814 
     99 H99       -71.9339   28.3018  -80.8968 H         1 UNK         0.0814 
    100 H100      -73.6311   28.4654  -81.3071 H         1 UNK         0.0814 
    101 H101      -75.3080   28.0847  -78.7074 H         1 UNK         0.3105 
    102 H102      -77.2395   26.8304  -79.9179 H         1 UNK         0.0547 
    103 H103      -78.4492   24.7237  -79.4490 H         1 UNK         0.0837 
    104 H104      -77.0926   24.4127  -80.5159 H         1 UNK         0.0837 
    105 H105      -76.9801   23.9876  -78.8114 H         1 UNK         0.0837 
    106 H106      -77.6153   25.7908  -77.2796 H         1 UNK         0.3020 
    107 H107      -77.0030   28.7439  -75.4477 H         1 UNK         0.1245 
    108 H108      -79.4329   28.1066  -74.6896 H         1 UNK         0.0781 
    109 H109      -79.7232   27.6549  -76.3425 H         1 UNK         0.0781 
    110 H110      -80.3794   31.7252  -74.6547 H         1 UNK         0.0836 
    111 H111      -81.0315   30.1469  -74.2903 H         1 UNK         0.0836 
    112 H112      -78.0386   26.3444  -74.5167 H         1 UNK         0.3022 
    113 H113      -75.0516   24.4634  -74.0876 H         1 UNK         0.0747 
    114 H114      -76.0217   24.5908  -71.7767 H         1 UNK         0.0793 
    115 H115      -76.8853   26.0598  -72.2246 H         1 UNK         0.0793 
    116 H116      -75.1287   26.0321  -72.2137 H         1 UNK         0.0793 
    117 H117      -77.9920   24.3411  -73.7341 H         1 UNK         0.3047 
    118 H118      -78.4319   21.9564  -76.2880 H         1 UNK         0.0822 
    119 H119      -77.6145   20.4568  -74.4602 H         1 UNK         0.0807 
    120 H120      -79.3683   20.4910  -74.5189 H         1 UNK         0.0807 
    121 H121      -78.5076   21.3962  -73.2724 H         1 UNK         0.0807 
    122 H122      -80.2221   22.9054  -74.2837 H         1 UNK         0.2946 
    123 H123      -81.2397   25.8629  -76.0290 H         1 UNK         0.1144 
    124 H124      -82.4145   23.8700  -76.9961 H         1 UNK         0.0793 
    125 H125      -83.4072   24.7342  -75.8352 H         1 UNK         0.0793 
    126 H126      -82.6315   23.2196  -75.3761 H         1 UNK         0.0793 
    127 H127      -82.3926   25.3504  -73.7294 H         1 UNK         0.2896 
@<TRIPOS>BOND
     1    1    2 1    
     2    1   67 1    
     3    1   68 1    
     4    1   69 1    
     5    2    3 2    
     6    2    4 am   BACKBONE|DICT|INTERRES
     7    4    5 1    
     8    4   70 1    
     9    5    6 1    
    10    5   65 1    
    11    5   71 1    
    12    6    7 1    
    13    6   72 1    
    14    6   73 1    
    15    7    8 1    
    16    8    9 1    
    17    8   74 1    
    18    8   75 1    
    19    9   10 ar   
    20    9   14 ar   
    21   10   11 ar   
    22   10   76 1    
    23   11   12 ar   
    24   11   48 1    
    25   12   13 ar   
    26   12   77 1    
    27   13   14 ar   
    28   13   15 1    
    29   14   78 1    
    30   15   16 1    
    31   15   79 1    
    32   15   80 1    
    33   16   17 1    
    34   17   18 1    
    35   17   81 1    
    36   17   82 1    
    37   18   19 1    
    38   18   22 1    
    39   18   83 1    
    40   19   20 am   BACKBONE|DICT|INTERRES
    41   19   21 2    
    42   20   84 1    
    43   20   85 1    
    44   22   23 am   BACKBONE|DICT|INTERRES
    45   22   86 1    
    46   23   24 2    
    47   23   25 1    
    48   25   26 1    
    49   25   27 1    
    50   25   87 1    
    51   26   88 1    
    52   26   89 1    
    53   26   90 1    
    54   27   28 am   BACKBONE|DICT|INTERRES
    55   27   91 1    
    56   28   29 2    
    57   28   30 1    
    58   30   31 1    
    59   30   32 1    
    60   30   92 1    
    61   31   93 1    
    62   31   94 1    
    63   31   95 1    
    64   32   33 am   BACKBONE|DICT|INTERRES
    65   32   96 1    
    66   33   34 2    
    67   33   35 1    
    68   35   36 1    
    69   35   37 1    
    70   35   97 1    
    71   36   98 1    
    72   36   99 1    
    73   36  100 1    
    74   37   38 am   BACKBONE|DICT|INTERRES
    75   37  101 1    
    76   38   39 2    
    77   38   40 1    
    78   40   41 1    
    79   40   42 1    
    80   40  102 1    
    81   41  103 1    
    82   41  104 1    
    83   41  105 1    
    84   42   43 am   BACKBONE|DICT|INTERRES
    85   42  106 1    
    86   43   44 2    
    87   43   45 1    
    88   45   46 1    
    89   45   49 1    
    90   45  107 1    
    91   46   47 1    
    92   46  108 1    
    93   46  109 1    
    94   47   48 1    
    95   48  110 1    
    96   48  111 1    
    97   49   50 am   BACKBONE|DICT|INTERRES
    98   49  112 1    
    99   50   51 2    
   100   50   52 1    
   101   52   53 1    
   102   52   54 1    
   103   52  113 1    
   104   53  114 1    
   105   53  115 1    
   106   53  116 1    
   107   54   55 am   BACKBONE|DICT|INTERRES
   108   54  117 1    
   109   55   56 2    
   110   55   57 1    
   111   57   58 1    
   112   57   59 1    
   113   57  118 1    
   114   58  119 1    
   115   58  120 1    
   116   58  121 1    
   117   59   60 am   BACKBONE|DICT|INTERRES
   118   59  122 1    
   119   60   61 2    
   120   60   62 1    
   121   62   63 1    
   122   62   64 1    
   123   62  123 1    
   124   63  124 1    
   125   63  125 1    
   126   63  126 1    
   127   64   65 am   BACKBONE|DICT|INTERRES
   128   64  127 1    
   129   65   66 2    
@<TRIPOS>SUBSTRUCTURE
     1 UNK         1 GROUP             0       ****    0 ROOT    
