@<TRIPOS>MOLECULE
3R135
127   129    1
SMALL
USER_CHARGES


@<TRIPOS>ATOM
      1 CA        -79.0008   22.7337  -73.8699 C.3       0 UNK        -0.1998 
      2 C         -80.4635   23.1394  -73.9444 C.2       0 UNK         0.4909 
      3 O         -81.3104   22.3308  -74.3246 O.2       0 UNK        -0.5240 
      4 N         -80.7633   24.3929  -73.5864 N.am      1 UNK        -0.4739 
      5 CA        -82.1019   24.9927  -73.6547 C.3       1 UNK         0.0864 
      6 C6        -82.2713   26.1514  -72.6343 C.3       11 UNK        -0.0881 
      7 S7        -80.8892   27.3502  -72.6357 S.3       11 UNK        -0.2682 
      8 C8        -80.1125   26.9689  -71.0310 C.3       11 UNK         0.0289 
      9 C9        -78.6491   27.3879  -70.9614 C.ar      11 UNK        -0.0687 
     10 C10       -77.6721   26.4482  -70.6137 C.ar      11 UNK        -0.0823 
     11 C11       -76.3315   26.8261  -70.4989 C.ar      11 UNK        -0.0830 
     12 C12       -75.9725   28.1585  -70.7194 C.ar      11 UNK        -0.1021 
     13 C13       -76.9305   29.1022  -71.0961 C.ar      11 UNK        -0.0753 
     14 C14       -78.2698   28.7129  -71.2064 C.ar      11 UNK        -0.0933 
     15 C15       -76.5188   30.5417  -71.3723 C.3       11 UNK         0.0166 
     16 S16       -75.7207   30.7203  -73.0016 S.3       11 UNK        -0.2615 
     17 C17       -73.9700   30.3805  -72.6136 C.3       11 UNK        -0.0865 
     18 CA        -73.0212   30.8398  -73.7517 C.3       10 UNK         0.0862 
     19 C         -71.5396   30.8787  -73.2717 C.2       10 UNK         0.5551 
     20 N         -70.6156   30.1548  -73.8922 N.am      10 UNK        -0.7319 
     21 O         -71.2214   31.5895  -72.3215 O.2       10 UNK        -0.5018 
     22 N         -73.2356   30.0481  -74.9744 N.am      10 UNK        -0.4509 
     23 C         -72.9908   30.4593  -76.2218 C.2       10 UNK         0.4899 
     24 O         -72.5939   31.5903  -76.5066 O.2       10 UNK        -0.4839 
     25 CA        -73.1966   29.4053  -77.3294 C.3       9 UNK         0.0222 
     26 CB        -73.1257   30.0138  -78.7425 C.3       9 UNK        -0.1966 
     27 N         -72.2289   28.3082  -77.2330 N.am      9 UNK        -0.4218 
     28 C         -72.2438   27.3317  -76.3168 C.2       9 UNK         0.5020 
     29 O         -73.0797   27.2434  -75.4120 O.2       9 UNK        -0.5274 
     30 CA        -71.0993   26.3178  -76.3883 C.3       8 UNK         0.0270 
     31 CB        -69.8442   26.8808  -75.6902 C.3       8 UNK        -0.1976 
     32 N         -71.5391   25.0867  -75.7393 N.am      8 UNK        -0.4313 
     33 C         -70.9205   23.9019  -75.7940 C.2       8 UNK         0.5041 
     34 O         -69.8888   23.6942  -76.4344 O.2       8 UNK        -0.5577 
     35 CA        -71.5500   22.7498  -74.9934 C.3       7 UNK         0.0284 
     36 CB        -71.0652   22.7834  -73.5343 C.3       7 UNK        -0.1958 
     37 N         -73.0140   22.7572  -75.0158 N.am      7 UNK        -0.4454 
     38 C         -73.7653   22.4295  -76.0777 C.2       7 UNK         0.5089 
     39 O         -73.3042   22.0962  -77.1695 O.2       7 UNK        -0.5125 
     40 CA        -75.2924   22.4649  -75.8821 C.3       6 UNK         0.0408 
     41 CB        -75.8108   21.0761  -75.4743 C.3       6 UNK        -0.1791 
     42 N         -75.7027   23.4532  -74.8802 N.am      6 UNK        -0.4762 
     43 C         -75.7354   24.7738  -75.1053 C.2       6 UNK         0.5007 
     44 O         -75.5079   25.2833  -76.2050 O.2       6 UNK        -0.5032 
     45 CA        -76.0058   25.6583  -73.8708 C.3       5 UNK         0.0783 
     46 C46       -74.7525   25.7290  -72.9516 C.3       11 UNK        -0.0857 
     47 S47       -74.9417   24.6239  -71.5118 S.3       11 UNK        -0.2512 
     48 C48       -75.2615   25.7984  -70.1505 C.3       11 UNK         0.0225 
     49 N         -76.4949   26.9885  -74.2358 N.am      5 UNK        -0.4615 
     50 C         -77.7019   27.2327  -74.7576 C.2       4 UNK         0.5053 
     51 O         -78.5524   26.3590  -74.9696 O.2       4 UNK        -0.5105 
     52 CA        -78.0058   28.6996  -75.0964 C.3       4 UNK         0.0263 
     53 CB        -77.0504   29.2304  -76.1843 C.3       4 UNK        -0.1981 
     54 N         -79.3900   28.7765  -75.5378 N.am      4 UNK        -0.4224 
     55 C         -80.1311   29.8648  -75.7728 C.2       3 UNK         0.4895 
     56 O         -79.7193   31.0169  -75.6297 O.2       3 UNK        -0.5091 
     57 CA        -81.5932   29.6337  -76.2189 C.3       3 UNK         0.0250 
     58 CB        -82.0076   30.5681  -77.3754 C.3       3 UNK        -0.1996 
     59 N         -81.9058   28.2281  -76.5239 N.am      3 UNK        -0.4254 
     60 C         -81.4067   27.4618  -77.5078 C.2       2 UNK         0.5004 
     61 O         -80.7033   27.8901  -78.4235 O.2       2 UNK        -0.5226 
     62 CA        -81.6737   25.9489  -77.3877 C.3       2 UNK         0.0269 
     63 CB        -80.7406   25.1129  -78.2842 C.3       2 UNK        -0.1926 
     64 N         -81.5060   25.5019  -76.0006 N.am      2 UNK        -0.4687 
     65 C         -82.4825   25.4348  -75.0845 C.2       1 UNK         0.5165 
     66 O         -83.6506   25.7385  -75.3292 O.2       1 UNK        -0.5079 
     67 H67       -78.5388   22.8424  -74.8505 H         1 UNK         0.0900 
     68 H68       -78.4529   23.3479  -73.1564 H         1 UNK         0.0900 
     69 H69       -78.9087   21.6934  -73.5587 H         1 UNK         0.0900 
     70 H70       -80.0246   25.0357  -73.3311 H         1 UNK         0.2959 
     71 H71       -82.8296   24.2227  -73.3876 H         1 UNK         0.1079 
     72 H72       -83.2024   26.6956  -72.8055 H         1 UNK         0.0837 
     73 H73       -82.3793   25.7295  -71.6342 H         1 UNK         0.0837 
     74 H74       -80.6681   27.4715  -70.2382 H         1 UNK         0.0685 
     75 H75       -80.1991   25.8985  -70.8379 H         1 UNK         0.0685 
     76 H76       -77.9498   25.4192  -70.4299 H         1 UNK         0.1434 
     77 H77       -74.9397   28.4580  -70.6151 H         1 UNK         0.1329 
     78 H78       -79.0214   29.4399  -71.4825 H         1 UNK         0.1335 
     79 H79       -75.8567   30.9012  -70.5834 H         1 UNK         0.0680 
     80 H80       -77.3952   31.1911  -71.3481 H         1 UNK         0.0680 
     81 H81       -73.7283   30.8938  -71.6808 H         1 UNK         0.1032 
     82 H82       -73.8383   29.3148  -72.4239 H         1 UNK         0.1032 
     83 H83       -73.2713   31.8773  -73.9824 H         1 UNK         0.0461 
     84 H84       -69.6603   30.1952  -73.5739 H         1 UNK         0.3453 
     85 H85       -70.8661   29.5840  -74.6812 H         1 UNK         0.3453 
     86 H86       -73.4608   29.0662  -74.8476 H         1 UNK         0.2984 
     87 H87       -74.1961   28.9861  -77.2064 H         1 UNK         0.0554 
     88 H88       -73.8536   30.8183  -78.8571 H         1 UNK         0.0847 
     89 H89       -73.3476   29.2695  -79.5074 H         1 UNK         0.0847 
     90 H90       -72.1414   30.4325  -78.9562 H         1 UNK         0.0847 
     91 H91       -71.4785   28.3190  -77.9093 H         1 UNK         0.3141 
     92 H92       -70.8803   26.1044  -77.4366 H         1 UNK         0.0743 
     93 H93       -69.5266   27.8202  -76.1442 H         1 UNK         0.0784 
     94 H94       -70.0260   27.0723  -74.6317 H         1 UNK         0.0784 
     95 H95       -69.0013   26.1937  -75.7631 H         1 UNK         0.0784 
     96 H96       -72.4093   25.1846  -75.2316 H         1 UNK         0.3213 
     97 H97       -71.2095   21.8136  -75.4420 H         1 UNK         0.0855 
     98 H98       -71.3964   23.6846  -73.0163 H         1 UNK         0.0814 
     99 H99       -69.9755   22.7622  -73.4857 H         1 UNK         0.0814 
    100 H100      -71.4288   21.9213  -72.9748 H         1 UNK         0.0814 
    101 H101      -73.4836   22.9975  -74.1558 H         1 UNK         0.3105 
    102 H102      -75.7456   22.7264  -76.8410 H         1 UNK         0.0547 
    103 H103      -76.8987   21.0563  -75.4187 H         1 UNK         0.0837 
    104 H104      -75.5151   20.3213  -76.2044 H         1 UNK         0.0837 
    105 H105      -75.4176   20.7625  -74.5065 H         1 UNK         0.0837 
    106 H106      -75.8833   23.1080  -73.9476 H         1 UNK         0.3020 
    107 H107      -76.8290   25.1940  -73.3238 H         1 UNK         0.1245 
    108 H108      -74.5674   26.7452  -72.6049 H         1 UNK         0.0781 
    109 H109      -73.8336   25.4563  -73.4736 H         1 UNK         0.0781 
    110 H110      -74.3248   26.2921  -69.8871 H         1 UNK         0.0836 
    111 H111      -75.5690   25.2404  -69.2649 H         1 UNK         0.0836 
    112 H112      -75.8468   27.7521  -74.1201 H         1 UNK         0.3022 
    113 H113      -77.9110   29.2905  -74.1854 H         1 UNK         0.0747 
    114 H114      -77.2736   30.2625  -76.4532 H         1 UNK         0.0793 
    115 H115      -76.0206   29.2163  -75.8308 H         1 UNK         0.0793 
    116 H116      -77.0990   28.6273  -77.0918 H         1 UNK         0.0793 
    117 H117      -79.8187   27.8638  -75.6297 H         1 UNK         0.3047 
    118 H118      -82.2073   29.8910  -75.3546 H         1 UNK         0.0822 
    119 H119      -81.9284   31.6146  -77.0784 H         1 UNK         0.0807 
    120 H120      -83.0411   30.3955  -77.6754 H         1 UNK         0.0807 
    121 H121      -81.3751   30.4350  -78.2533 H         1 UNK         0.0807 
    122 H122      -82.4839   27.7608  -75.8375 H         1 UNK         0.2946 
    123 H123      -82.7014   25.7757  -77.7157 H         1 UNK         0.1144 
    124 H124      -80.9501   24.0474  -78.1889 H         1 UNK         0.0793 
    125 H125      -79.6912   25.2723  -78.0317 H         1 UNK         0.0793 
    126 H126      -80.8685   25.3732  -79.3358 H         1 UNK         0.0793 
    127 H127      -80.5604   25.3002  -75.6996 H         1 UNK         0.2896 
@<TRIPOS>BOND
     1    1    2 1    
     2    1   67 1    
     3    1   68 1    
     4    1   69 1    
     5    2    3 2    
     6    2    4 am   BACKBONE|DICT|INTERRES
     7    4    5 1    
     8    4   70 1    
     9    5    6 1    
    10    5   65 1    
    11    5   71 1    
    12    6    7 1    
    13    6   72 1    
    14    6   73 1    
    15    7    8 1    
    16    8    9 1    
    17    8   74 1    
    18    8   75 1    
    19    9   10 ar   
    20    9   14 ar   
    21   10   11 ar   
    22   10   76 1    
    23   11   12 ar   
    24   11   48 1    
    25   12   13 ar   
    26   12   77 1    
    27   13   14 ar   
    28   13   15 1    
    29   14   78 1    
    30   15   16 1    
    31   15   79 1    
    32   15   80 1    
    33   16   17 1    
    34   17   18 1    
    35   17   81 1    
    36   17   82 1    
    37   18   19 1    
    38   18   22 1    
    39   18   83 1    
    40   19   20 am   BACKBONE|DICT|INTERRES
    41   19   21 2    
    42   20   84 1    
    43   20   85 1    
    44   22   23 am   BACKBONE|DICT|INTERRES
    45   22   86 1    
    46   23   24 2    
    47   23   25 1    
    48   25   26 1    
    49   25   27 1    
    50   25   87 1    
    51   26   88 1    
    52   26   89 1    
    53   26   90 1    
    54   27   28 am   BACKBONE|DICT|INTERRES
    55   27   91 1    
    56   28   29 2    
    57   28   30 1    
    58   30   31 1    
    59   30   32 1    
    60   30   92 1    
    61   31   93 1    
    62   31   94 1    
    63   31   95 1    
    64   32   33 am   BACKBONE|DICT|INTERRES
    65   32   96 1    
    66   33   34 2    
    67   33   35 1    
    68   35   36 1    
    69   35   37 1    
    70   35   97 1    
    71   36   98 1    
    72   36   99 1    
    73   36  100 1    
    74   37   38 am   BACKBONE|DICT|INTERRES
    75   37  101 1    
    76   38   39 2    
    77   38   40 1    
    78   40   41 1    
    79   40   42 1    
    80   40  102 1    
    81   41  103 1    
    82   41  104 1    
    83   41  105 1    
    84   42   43 am   BACKBONE|DICT|INTERRES
    85   42  106 1    
    86   43   44 2    
    87   43   45 1    
    88   45   46 1    
    89   45   49 1    
    90   45  107 1    
    91   46   47 1    
    92   46  108 1    
    93   46  109 1    
    94   47   48 1    
    95   48  110 1    
    96   48  111 1    
    97   49   50 am   BACKBONE|DICT|INTERRES
    98   49  112 1    
    99   50   51 2    
   100   50   52 1    
   101   52   53 1    
   102   52   54 1    
   103   52  113 1    
   104   53  114 1    
   105   53  115 1    
   106   53  116 1    
   107   54   55 am   BACKBONE|DICT|INTERRES
   108   54  117 1    
   109   55   56 2    
   110   55   57 1    
   111   57   58 1    
   112   57   59 1    
   113   57  118 1    
   114   58  119 1    
   115   58  120 1    
   116   58  121 1    
   117   59   60 am   BACKBONE|DICT|INTERRES
   118   59  122 1    
   119   60   61 2    
   120   60   62 1    
   121   62   63 1    
   122   62   64 1    
   123   62  123 1    
   124   63  124 1    
   125   63  125 1    
   126   63  126 1    
   127   64   65 am   BACKBONE|DICT|INTERRES
   128   64  127 1    
   129   65   66 2    
@<TRIPOS>SUBSTRUCTURE
     1 UNK         1 GROUP             0       ****    0 ROOT    
