@<TRIPOS>MOLECULE
3R135
127   129    1
SMALL
USER_CHARGES


@<TRIPOS>ATOM
      1 CA        -80.4147   22.4008  -73.3629 C.3       0 UNK        -0.1998 
      2 C         -81.4835   23.4829  -73.3316 C.2       0 UNK         0.4909 
      3 O         -82.6440   23.1902  -73.0430 O.2       0 UNK        -0.5240 
      4 N         -81.0983   24.7252  -73.6433 N.am      1 UNK        -0.4739 
      5 CA        -81.9865   25.8924  -73.7380 C.3       1 UNK         0.0864 
      6 C6        -81.4099   27.1153  -72.9749 C.3       11 UNK        -0.0881 
      7 S7        -81.2759   26.8048  -71.1848 S.3       11 UNK        -0.2682 
      8 C8        -80.7133   28.4284  -70.5769 C.3       11 UNK         0.0289 
      9 C9        -79.2136   28.6224  -70.7562 C.ar      11 UNK        -0.0687 
     10 C10       -78.3219   27.8024  -70.0620 C.ar      11 UNK        -0.0823 
     11 C11       -76.9427   27.9591  -70.2154 C.ar      11 UNK        -0.0830 
     12 C12       -76.4554   28.9732  -71.0436 C.ar      11 UNK        -0.1021 
     13 C13       -77.3336   29.8281  -71.7244 C.ar      11 UNK        -0.0753 
     14 C14       -78.7135   29.6323  -71.5840 C.ar      11 UNK        -0.0933 
     15 C15       -76.8392   30.9494  -72.6423 C.3       11 UNK         0.0166 
     16 S16       -75.2494   31.7055  -72.1536 S.3       11 UNK        -0.2615 
     17 C17       -74.0527   30.6138  -72.9982 C.3       11 UNK        -0.0865 
     18 CA        -73.4427   31.2639  -74.2775 C.3       10 UNK         0.0862 
     19 C         -72.1382   32.0757  -74.0022 C.2       10 UNK         0.5551 
     20 N         -71.1734   32.0984  -74.9140 N.am      10 UNK        -0.7319 
     21 O         -72.0048   32.7183  -72.9638 O.2       10 UNK        -0.5018 
     22 N         -73.3596   30.3148  -75.4022 N.am      10 UNK        -0.4509 
     23 C         -72.6583   29.1735  -75.4206 C.2       10 UNK         0.4899 
     24 O         -71.9893   28.7651  -74.4691 O.2       10 UNK        -0.4839 
     25 CA        -72.7811   28.3426  -76.7119 C.3       9 UNK         0.0222 
     26 CB        -72.4332   29.1557  -77.9794 C.3       9 UNK        -0.1966 
     27 N         -72.0339   27.0812  -76.6587 N.am      9 UNK        -0.4218 
     28 C         -70.7027   26.9009  -76.7075 C.2       9 UNK         0.5020 
     29 O         -69.8822   27.8140  -76.8143 O.2       9 UNK        -0.5274 
     30 CA        -70.1808   25.4490  -76.6407 C.3       8 UNK         0.0270 
     31 CB        -69.5714   25.1608  -75.2583 C.3       8 UNK        -0.1976 
     32 N         -71.2014   24.4370  -76.9279 N.am      8 UNK        -0.4313 
     33 C         -71.8207   24.2648  -78.1041 C.2       8 UNK         0.5041 
     34 O         -71.4966   24.8534  -79.1362 O.2       8 UNK        -0.5577 
     35 CA        -73.0232   23.2995  -78.1372 C.3       7 UNK         0.0284 
     36 CB        -72.6700   22.0291  -78.9291 C.3       7 UNK        -0.1958 
     37 N         -73.5511   22.9092  -76.8217 N.am      7 UNK        -0.4454 
     38 C         -74.0810   23.7289  -75.9029 C.2       7 UNK         0.5089 
     39 O         -74.1409   24.9563  -76.0191 O.2       7 UNK        -0.5125 
     40 CA        -74.5622   23.0545  -74.6140 C.3       6 UNK         0.0408 
     41 CB        -73.3712   22.6985  -73.7042 C.3       6 UNK        -0.1791 
     42 N         -75.4736   23.9413  -73.8968 N.am      6 UNK        -0.4762 
     43 C         -76.4432   23.5373  -73.0656 C.2       6 UNK         0.5007 
     44 O         -76.6954   22.3517  -72.8458 O.2       6 UNK        -0.5032 
     45 CA        -77.2722   24.6187  -72.3387 C.3       5 UNK         0.0783 
     46 C46       -76.8697   24.7151  -70.8428 C.3       11 UNK        -0.0857 
     47 S47       -75.3549   25.6969  -70.5362 S.3       11 UNK        -0.2512 
     48 C48       -75.9786   27.0420  -69.4752 C.3       11 UNK         0.0225 
     49 N         -77.2430   25.9237  -73.0078 N.am      5 UNK        -0.4615 
     50 C         -77.8501   26.2128  -74.1625 C.2       4 UNK         0.5053 
     51 O         -78.5806   25.4250  -74.7684 O.2       4 UNK        -0.5105 
     52 CA        -77.5936   27.6157  -74.7215 C.3       4 UNK         0.0263 
     53 CB        -76.1306   27.7812  -75.1674 C.3       4 UNK        -0.1981 
     54 N         -78.4874   27.8766  -75.8445 N.am      4 UNK        -0.4224 
     55 C         -78.8723   29.0841  -76.2738 C.2       3 UNK         0.4895 
     56 O         -78.4793   30.1374  -75.7723 O.2       3 UNK        -0.5091 
     57 CA        -79.8858   29.1564  -77.4337 C.3       3 UNK         0.0250 
     58 CB        -79.1806   29.4200  -78.7793 C.3       3 UNK        -0.1996 
     59 N         -80.8095   28.0141  -77.5047 N.am      3 UNK        -0.4254 
     60 C         -80.5591   26.7462  -77.8591 C.2       2 UNK         0.5004 
     61 O         -79.4671   26.3421  -78.2594 O.2       2 UNK        -0.5226 
     62 CA        -81.6956   25.7462  -77.5914 C.3       2 UNK         0.0269 
     63 CB        -81.5184   24.4278  -78.3670 C.3       2 UNK        -0.1926 
     64 N         -81.7316   25.4532  -76.1584 N.am      2 UNK        -0.4687 
     65 C         -82.2586   26.2496  -75.2156 C.2       1 UNK         0.5165 
     66 O         -82.9096   27.2603  -75.4868 O.2       1 UNK        -0.5079 
     67 H67       -79.5348   22.7162  -73.9238 H         1 UNK         0.0900 
     68 H68       -80.8043   21.4993  -73.8352 H         1 UNK         0.0900 
     69 H69       -80.1047   22.1476  -72.3495 H         1 UNK         0.0900 
     70 H70       -80.1348   24.9005  -73.9214 H         1 UNK         0.2959 
     71 H71       -82.9612   25.6583  -73.3042 H         1 UNK         0.1079 
     72 H72       -82.0510   27.9891  -73.1075 H         1 UNK         0.0837 
     73 H73       -80.4292   27.3943  -73.3620 H         1 UNK         0.0837 
     74 H74       -81.2769   29.2217  -71.0704 H         1 UNK         0.0685 
     75 H75       -80.9501   28.5028  -69.5147 H         1 UNK         0.0685 
     76 H76       -78.7104   27.0327  -69.4094 H         1 UNK         0.1434 
     77 H77       -75.3867   29.0906  -71.1425 H         1 UNK         0.1329 
     78 H78       -79.4015   30.2740  -72.1176 H         1 UNK         0.1335 
     79 H79       -76.7684   30.5769  -73.6647 H         1 UNK         0.0680 
     80 H80       -77.5814   31.7489  -72.6646 H         1 UNK         0.0680 
     81 H81       -74.5626   29.6845  -73.2523 H         1 UNK         0.1032 
     82 H82       -73.2725   30.3220  -72.2926 H         1 UNK         0.1032 
     83 H83       -74.1491   32.0129  -74.6374 H         1 UNK         0.0461 
     84 H84       -71.2686   31.5770  -75.7702 H         1 UNK         0.3453 
     85 H85       -70.3372   32.6319  -74.7357 H         1 UNK         0.3453 
     86 H86       -73.8760   30.5804  -76.2284 H         1 UNK         0.2984 
     87 H87       -73.8263   28.0469  -76.7948 H         1 UNK         0.0554 
     88 H88       -72.4465   28.5254  -78.8689 H         1 UNK         0.0847 
     89 H89       -71.4469   29.6157  -77.9126 H         1 UNK         0.0847 
     90 H90       -73.1521   29.9573  -78.1501 H         1 UNK         0.0847 
     91 H91       -72.6114   26.2588  -76.5143 H         1 UNK         0.3141 
     92 H92       -69.3939   25.3523  -77.3917 H         1 UNK         0.0743 
     93 H93       -70.3171   25.2345  -74.4654 H         1 UNK         0.0784 
     94 H94       -69.1303   24.1646  -75.2165 H         1 UNK         0.0784 
     95 H95       -68.7789   25.8736  -75.0255 H         1 UNK         0.0784 
     96 H96       -71.5308   23.8934  -76.1445 H         1 UNK         0.3213 
     97 H97       -73.8252   23.8192  -78.6660 H         1 UNK         0.0855 
     98 H98       -72.3093   22.2780  -79.9284 H         1 UNK         0.0814 
     99 H99       -71.8876   21.4506  -78.4362 H         1 UNK         0.0814 
    100 H100      -73.5391   21.3832  -79.0552 H         1 UNK         0.0814 
    101 H101      -73.5338   21.9195  -76.6181 H         1 UNK         0.3105 
    102 H102      -75.0920   22.1414  -74.8944 H         1 UNK         0.0547 
    103 H103      -72.6710   22.0298  -74.2061 H         1 UNK         0.0837 
    104 H104      -72.8169   23.5879  -73.4015 H         1 UNK         0.0837 
    105 H105      -73.7026   22.1905  -72.7983 H         1 UNK         0.0837 
    106 H106      -75.3492   24.9272  -74.0866 H         1 UNK         0.3020 
    107 H107      -78.3047   24.2661  -72.3661 H         1 UNK         0.1245 
    108 H108      -76.7280   23.7232  -70.4086 H         1 UNK         0.0781 
    109 H109      -77.6988   25.1399  -70.2796 H         1 UNK         0.0781 
    110 H110      -75.1308   27.6239  -69.1105 H         1 UNK         0.0836 
    111 H111      -76.4534   26.6154  -68.5901 H         1 UNK         0.0836 
    112 H112      -76.6900   26.6306  -72.5428 H         1 UNK         0.3022 
    113 H113      -77.8190   28.3265  -73.9285 H         1 UNK         0.0747 
    114 H114      -75.4345   27.5901  -74.3502 H         1 UNK         0.0793 
    115 H115      -75.8854   27.0916  -75.9759 H         1 UNK         0.0793 
    116 H116      -75.9397   28.7941  -75.5214 H         1 UNK         0.0793 
    117 H117      -78.8394   27.0490  -76.3151 H         1 UNK         0.3047 
    118 H118      -80.5182   30.0214  -77.2268 H         1 UNK         0.0822 
    119 H119      -79.8988   29.5072  -79.5946 H         1 UNK         0.0807 
    120 H120      -78.4743   28.6298  -79.0349 H         1 UNK         0.0807 
    121 H121      -78.6166   30.3530  -78.7428 H         1 UNK         0.0807 
    122 H122      -81.7224   28.1894  -77.0992 H         1 UNK         0.2946 
    123 H123      -82.6393   26.2013  -77.9022 H         1 UNK         0.1144 
    124 H124      -82.3567   23.7524  -78.1949 H         1 UNK         0.0793 
    125 H125      -80.6043   23.9057  -78.0807 H         1 UNK         0.0793 
    126 H126      -81.4661   24.6126  -79.4407 H         1 UNK         0.0793 
    127 H127      -81.1864   24.6616  -75.8486 H         1 UNK         0.2896 
@<TRIPOS>BOND
     1    1    2 1    
     2    1   67 1    
     3    1   68 1    
     4    1   69 1    
     5    2    3 2    
     6    2    4 am   BACKBONE|DICT|INTERRES
     7    4    5 1    
     8    4   70 1    
     9    5    6 1    
    10    5   65 1    
    11    5   71 1    
    12    6    7 1    
    13    6   72 1    
    14    6   73 1    
    15    7    8 1    
    16    8    9 1    
    17    8   74 1    
    18    8   75 1    
    19    9   10 ar   
    20    9   14 ar   
    21   10   11 ar   
    22   10   76 1    
    23   11   12 ar   
    24   11   48 1    
    25   12   13 ar   
    26   12   77 1    
    27   13   14 ar   
    28   13   15 1    
    29   14   78 1    
    30   15   16 1    
    31   15   79 1    
    32   15   80 1    
    33   16   17 1    
    34   17   18 1    
    35   17   81 1    
    36   17   82 1    
    37   18   19 1    
    38   18   22 1    
    39   18   83 1    
    40   19   20 am   BACKBONE|DICT|INTERRES
    41   19   21 2    
    42   20   84 1    
    43   20   85 1    
    44   22   23 am   BACKBONE|DICT|INTERRES
    45   22   86 1    
    46   23   24 2    
    47   23   25 1    
    48   25   26 1    
    49   25   27 1    
    50   25   87 1    
    51   26   88 1    
    52   26   89 1    
    53   26   90 1    
    54   27   28 am   BACKBONE|DICT|INTERRES
    55   27   91 1    
    56   28   29 2    
    57   28   30 1    
    58   30   31 1    
    59   30   32 1    
    60   30   92 1    
    61   31   93 1    
    62   31   94 1    
    63   31   95 1    
    64   32   33 am   BACKBONE|DICT|INTERRES
    65   32   96 1    
    66   33   34 2    
    67   33   35 1    
    68   35   36 1    
    69   35   37 1    
    70   35   97 1    
    71   36   98 1    
    72   36   99 1    
    73   36  100 1    
    74   37   38 am   BACKBONE|DICT|INTERRES
    75   37  101 1    
    76   38   39 2    
    77   38   40 1    
    78   40   41 1    
    79   40   42 1    
    80   40  102 1    
    81   41  103 1    
    82   41  104 1    
    83   41  105 1    
    84   42   43 am   BACKBONE|DICT|INTERRES
    85   42  106 1    
    86   43   44 2    
    87   43   45 1    
    88   45   46 1    
    89   45   49 1    
    90   45  107 1    
    91   46   47 1    
    92   46  108 1    
    93   46  109 1    
    94   47   48 1    
    95   48  110 1    
    96   48  111 1    
    97   49   50 am   BACKBONE|DICT|INTERRES
    98   49  112 1    
    99   50   51 2    
   100   50   52 1    
   101   52   53 1    
   102   52   54 1    
   103   52  113 1    
   104   53  114 1    
   105   53  115 1    
   106   53  116 1    
   107   54   55 am   BACKBONE|DICT|INTERRES
   108   54  117 1    
   109   55   56 2    
   110   55   57 1    
   111   57   58 1    
   112   57   59 1    
   113   57  118 1    
   114   58  119 1    
   115   58  120 1    
   116   58  121 1    
   117   59   60 am   BACKBONE|DICT|INTERRES
   118   59  122 1    
   119   60   61 2    
   120   60   62 1    
   121   62   63 1    
   122   62   64 1    
   123   62  123 1    
   124   63  124 1    
   125   63  125 1    
   126   63  126 1    
   127   64   65 am   BACKBONE|DICT|INTERRES
   128   64  127 1    
   129   65   66 2    
@<TRIPOS>SUBSTRUCTURE
     1 UNK         1 GROUP             0       ****    0 ROOT    
