@<TRIPOS>MOLECULE
3R135
127   129    1
SMALL
USER_CHARGES


@<TRIPOS>ATOM
      1 CA        -78.2262   23.3325  -70.3621 C.3       0 UNK        -0.1998 
      2 C         -77.0903   24.3530  -70.3569 C.2       0 UNK         0.4909 
      3 O         -75.9308   23.9597  -70.2480 O.2       0 UNK        -0.5240 
      4 N         -77.3603   25.6609  -70.4621 N.am      1 UNK        -0.4739 
      5 CA        -78.6730   26.2864  -70.6543 C.3       1 UNK         0.0864 
      6 C6        -78.6040   27.8008  -70.3359 C.3       11 UNK        -0.0881 
      7 S7        -80.1329   28.4698  -69.5866 S.3       11 UNK        -0.2682 
      8 C8        -81.1048   29.1343  -70.9887 C.3       11 UNK         0.0289 
      9 C9        -80.2808   29.8859  -72.0277 C.ar      11 UNK        -0.0687 
     10 C10       -80.4014   29.5517  -73.3791 C.ar      11 UNK        -0.0823 
     11 C11       -79.6026   30.1732  -74.3416 C.ar      11 UNK        -0.0830 
     12 C12       -78.6973   31.1635  -73.9478 C.ar      11 UNK        -0.1021 
     13 C13       -78.5666   31.5082  -72.5986 C.ar      11 UNK        -0.0753 
     14 C14       -79.3774   30.8831  -71.6467 C.ar      11 UNK        -0.0933 
     15 C15       -77.5044   32.5060  -72.1551 C.3       11 UNK         0.0166 
     16 S16       -75.8054   31.9312  -72.5062 S.3       11 UNK        -0.2615 
     17 C17       -75.8581   30.1826  -71.9680 C.3       11 UNK        -0.0865 
     18 CA        -74.4911   29.4479  -72.0376 C.3       10 UNK         0.0862 
     19 C         -74.6604   27.9432  -71.6620 C.2       10 UNK         0.5551 
     20 N         -74.2520   26.9851  -72.4854 N.am      10 UNK        -0.7319 
     21 O         -75.1882   27.6379  -70.5958 O.2       10 UNK        -0.5018 
     22 N         -73.8026   29.6896  -73.3155 N.am      10 UNK        -0.4509 
     23 C         -72.4901   29.5468  -73.5265 C.2       10 UNK         0.4899 
     24 O         -71.6723   29.2312  -72.6601 O.2       10 UNK        -0.4839 
     25 CA        -72.0157   29.7986  -74.9691 C.3       9 UNK         0.0222 
     26 CB        -71.0601   31.0022  -75.0258 C.3       9 UNK        -0.1966 
     27 N         -71.3703   28.6317  -75.5819 N.am      9 UNK        -0.4218 
     28 C         -71.8930   27.3997  -75.6529 C.2       9 UNK         0.5020 
     29 O         -72.9512   27.0643  -75.1205 O.2       9 UNK        -0.5274 
     30 CA        -71.1056   26.3574  -76.4481 C.3       8 UNK         0.0270 
     31 CB        -70.2600   25.4723  -75.5160 C.3       8 UNK        -0.1976 
     32 N         -72.0618   25.5367  -77.1873 N.am      8 UNK        -0.4313 
     33 C         -71.8218   24.9482  -78.3649 C.2       8 UNK         0.5041 
     34 O         -70.7339   24.9897  -78.9419 O.2       8 UNK        -0.5577 
     35 CA        -72.9892   24.2004  -79.0246 C.3       7 UNK         0.0284 
     36 CB        -73.1809   22.8129  -78.3888 C.3       7 UNK        -0.1958 
     37 N         -74.2344   24.9644  -78.9332 N.am      7 UNK        -0.4454 
     38 C         -74.6496   25.8532  -79.8472 C.2       7 UNK         0.5089 
     39 O         -74.0306   26.1065  -80.8814 O.2       7 UNK        -0.5125 
     40 CA        -75.9851   26.5760  -79.5881 C.3       6 UNK         0.0408 
     41 CB        -77.1170   25.9118  -80.3875 C.3       6 UNK        -0.1791 
     42 N         -76.3518   26.6085  -78.1716 N.am      6 UNK        -0.4762 
     43 C         -75.8351   27.4659  -77.2777 C.2       6 UNK         0.5007 
     44 O         -75.0549   28.3702  -77.5787 O.2       6 UNK        -0.5032 
     45 CA        -76.2337   27.2806  -75.7963 C.3       5 UNK         0.0783 
     46 C46       -77.2871   28.3204  -75.3494 C.3       11 UNK        -0.0857 
     47 S47       -78.9613   28.0715  -76.0394 S.3       11 UNK        -0.2512 
     48 C48       -79.6803   29.7317  -75.7973 C.3       11 UNK         0.0225 
     49 N         -76.6194   25.9139  -75.4304 N.am      5 UNK        -0.4615 
     50 C         -75.8844   24.8074  -75.6122 C.2       4 UNK         0.5053 
     51 O         -74.7561   24.8032  -76.1026 O.2       4 UNK        -0.5105 
     52 CA        -76.5461   23.4651  -75.2614 C.3       4 UNK         0.0263 
     53 CB        -76.2668   23.0987  -73.7987 C.3       4 UNK        -0.1981 
     54 N         -77.9920   23.4561  -75.4980 N.am      4 UNK        -0.4224 
     55 C         -78.5920   23.6608  -76.6782 C.2       3 UNK         0.4895 
     56 O         -77.9802   23.8421  -77.7311 O.2       3 UNK        -0.5091 
     57 CA        -80.1296   23.7260  -76.6842 C.3       3 UNK         0.0250 
     58 CB        -80.7562   22.3182  -76.6459 C.3       3 UNK        -0.1996 
     59 N         -80.6843   24.6107  -75.6477 N.am      3 UNK        -0.4254 
     60 C         -80.6657   24.4559  -74.3159 C.2       2 UNK         0.5004 
     61 O         -80.2330   23.4556  -73.7374 O.2       2 UNK        -0.5226 
     62 CA        -81.2067   25.6390  -73.4959 C.3       2 UNK         0.0269 
     63 CB        -82.7086   25.4649  -73.2215 C.3       2 UNK        -0.1926 
     64 N         -80.5060   25.8318  -72.2216 N.am      2 UNK        -0.4687 
     65 C         -79.1904   26.0535  -72.0889 C.2       1 UNK         0.5165 
     66 O         -78.4033   26.1049  -73.0367 O.2       1 UNK        -0.5079 
     67 H67       -78.9732   23.5640  -69.6040 H         1 UNK         0.0900 
     68 H68       -77.8408   22.3362  -70.1460 H         1 UNK         0.0900 
     69 H69       -78.7099   23.2913  -71.3377 H         1 UNK         0.0900 
     70 H70       -76.5762   26.3075  -70.4860 H         1 UNK         0.2959 
     71 H71       -79.3628   25.8186  -69.9499 H         1 UNK         0.1079 
     72 H72       -77.8277   27.9818  -69.5903 H         1 UNK         0.0837 
     73 H73       -78.2853   28.3811  -71.2022 H         1 UNK         0.0837 
     74 H74       -81.6437   28.3075  -71.4527 H         1 UNK         0.0685 
     75 H75       -81.8674   29.8071  -70.5947 H         1 UNK         0.0685 
     76 H76       -81.0959   28.7830  -73.6841 H         1 UNK         0.1434 
     77 H77       -78.0582   31.6353  -74.6818 H         1 UNK         0.1329 
     78 H78       -79.2730   31.1348  -70.6002 H         1 UNK         0.1335 
     79 H79       -77.5878   32.7083  -71.0861 H         1 UNK         0.0680 
     80 H80       -77.6697   33.4578  -72.6616 H         1 UNK         0.0680 
     81 H81       -76.5858   29.6589  -72.5875 H         1 UNK         0.1032 
     82 H82       -76.2510   30.1509  -70.9498 H         1 UNK         0.1032 
     83 H83       -73.8617   29.8762  -71.2552 H         1 UNK         0.0461 
     84 H84       -73.7940   27.1972  -73.3666 H         1 UNK         0.3453 
     85 H85       -74.3755   26.0248  -72.2104 H         1 UNK         0.3453 
     86 H86       -74.3930   29.9664  -74.0850 H         1 UNK         0.2984 
     87 H87       -72.8860   30.0345  -75.5854 H         1 UNK         0.0554 
     88 H88       -70.7933   31.2529  -76.0526 H         1 UNK         0.0847 
     89 H89       -70.1382   30.8116  -74.4746 H         1 UNK         0.0847 
     90 H90       -71.5227   31.8880  -74.5882 H         1 UNK         0.0847 
     91 H91       -70.4748   28.7969  -76.0181 H         1 UNK         0.3141 
     92 H92       -70.4500   26.8755  -77.1514 H         1 UNK         0.0743 
     93 H93       -70.8840   24.9324  -74.8023 H         1 UNK         0.0784 
     94 H94       -69.6843   24.7383  -76.0801 H         1 UNK         0.0784 
     95 H95       -69.5510   26.0719  -74.9437 H         1 UNK         0.0784 
     96 H96       -72.9850   25.4663  -76.7607 H         1 UNK         0.3213 
     97 H97       -72.7362   24.0481  -80.0764 H         1 UNK         0.0855 
     98 H98       -73.4074   22.8762  -77.3243 H         1 UNK         0.0814 
     99 H99       -72.2765   22.2119  -78.4918 H         1 UNK         0.0814 
    100 H100      -73.9906   22.2650  -78.8710 H         1 UNK         0.0814 
    101 H101      -74.7575   24.8701  -78.0685 H         1 UNK         0.3105 
    102 H102      -75.8811   27.6026  -79.9460 H         1 UNK         0.0547 
    103 H103      -76.9034   25.9354  -81.4569 H         1 UNK         0.0837 
    104 H104      -77.2510   24.8665  -80.1073 H         1 UNK         0.0837 
    105 H105      -78.0666   26.4251  -80.2357 H         1 UNK         0.0837 
    106 H106      -76.9796   25.8831  -77.8450 H         1 UNK         0.3020 
    107 H107      -75.3363   27.4943  -75.2199 H         1 UNK         0.1245 
    108 H108      -76.9451   29.3296  -75.5867 H         1 UNK         0.0781 
    109 H109      -77.3789   28.2876  -74.2636 H         1 UNK         0.0781 
    110 H110      -80.7222   29.7204  -76.1202 H         1 UNK         0.0836 
    111 H111      -79.1662   30.4424  -76.4462 H         1 UNK         0.0836 
    112 H112      -77.5059   25.8299  -74.9455 H         1 UNK         0.3022 
    113 H113      -76.1019   22.7001  -75.9015 H         1 UNK         0.0747 
    114 H114      -76.6796   22.1229  -73.5427 H         1 UNK         0.0793 
    115 H115      -75.1946   23.0628  -73.6007 H         1 UNK         0.0793 
    116 H116      -76.6984   23.8363  -73.1235 H         1 UNK         0.0793 
    117 H117      -78.5970   23.3435  -74.6879 H         1 UNK         0.3047 
    118 H118      -80.4148   24.1791  -77.6353 H         1 UNK         0.0822 
    119 H119      -81.8436   22.3673  -76.7021 H         1 UNK         0.0807 
    120 H120      -80.4919   21.7722  -75.7400 H         1 UNK         0.0807 
    121 H121      -80.4146   21.7205  -77.4920 H         1 UNK         0.0807 
    122 H122      -81.0501   25.4827  -76.0056 H         1 UNK         0.2946 
    123 H123      -81.0595   26.5456  -74.0846 H         1 UNK         0.1144 
    124 H124      -83.1231   26.3321  -72.7069 H         1 UNK         0.0793 
    125 H125      -82.9054   24.5837  -72.6093 H         1 UNK         0.0793 
    126 H126      -83.2668   25.3460  -74.1513 H         1 UNK         0.0793 
    127 H127      -81.0770   25.7862  -71.3905 H         1 UNK         0.2896 
@<TRIPOS>BOND
     1    1    2 1    
     2    1   67 1    
     3    1   68 1    
     4    1   69 1    
     5    2    3 2    
     6    2    4 am   BACKBONE|DICT|INTERRES
     7    4    5 1    
     8    4   70 1    
     9    5    6 1    
    10    5   65 1    
    11    5   71 1    
    12    6    7 1    
    13    6   72 1    
    14    6   73 1    
    15    7    8 1    
    16    8    9 1    
    17    8   74 1    
    18    8   75 1    
    19    9   10 ar   
    20    9   14 ar   
    21   10   11 ar   
    22   10   76 1    
    23   11   12 ar   
    24   11   48 1    
    25   12   13 ar   
    26   12   77 1    
    27   13   14 ar   
    28   13   15 1    
    29   14   78 1    
    30   15   16 1    
    31   15   79 1    
    32   15   80 1    
    33   16   17 1    
    34   17   18 1    
    35   17   81 1    
    36   17   82 1    
    37   18   19 1    
    38   18   22 1    
    39   18   83 1    
    40   19   20 am   BACKBONE|DICT|INTERRES
    41   19   21 2    
    42   20   84 1    
    43   20   85 1    
    44   22   23 am   BACKBONE|DICT|INTERRES
    45   22   86 1    
    46   23   24 2    
    47   23   25 1    
    48   25   26 1    
    49   25   27 1    
    50   25   87 1    
    51   26   88 1    
    52   26   89 1    
    53   26   90 1    
    54   27   28 am   BACKBONE|DICT|INTERRES
    55   27   91 1    
    56   28   29 2    
    57   28   30 1    
    58   30   31 1    
    59   30   32 1    
    60   30   92 1    
    61   31   93 1    
    62   31   94 1    
    63   31   95 1    
    64   32   33 am   BACKBONE|DICT|INTERRES
    65   32   96 1    
    66   33   34 2    
    67   33   35 1    
    68   35   36 1    
    69   35   37 1    
    70   35   97 1    
    71   36   98 1    
    72   36   99 1    
    73   36  100 1    
    74   37   38 am   BACKBONE|DICT|INTERRES
    75   37  101 1    
    76   38   39 2    
    77   38   40 1    
    78   40   41 1    
    79   40   42 1    
    80   40  102 1    
    81   41  103 1    
    82   41  104 1    
    83   41  105 1    
    84   42   43 am   BACKBONE|DICT|INTERRES
    85   42  106 1    
    86   43   44 2    
    87   43   45 1    
    88   45   46 1    
    89   45   49 1    
    90   45  107 1    
    91   46   47 1    
    92   46  108 1    
    93   46  109 1    
    94   47   48 1    
    95   48  110 1    
    96   48  111 1    
    97   49   50 am   BACKBONE|DICT|INTERRES
    98   49  112 1    
    99   50   51 2    
   100   50   52 1    
   101   52   53 1    
   102   52   54 1    
   103   52  113 1    
   104   53  114 1    
   105   53  115 1    
   106   53  116 1    
   107   54   55 am   BACKBONE|DICT|INTERRES
   108   54  117 1    
   109   55   56 2    
   110   55   57 1    
   111   57   58 1    
   112   57   59 1    
   113   57  118 1    
   114   58  119 1    
   115   58  120 1    
   116   58  121 1    
   117   59   60 am   BACKBONE|DICT|INTERRES
   118   59  122 1    
   119   60   61 2    
   120   60   62 1    
   121   62   63 1    
   122   62   64 1    
   123   62  123 1    
   124   63  124 1    
   125   63  125 1    
   126   63  126 1    
   127   64   65 am   BACKBONE|DICT|INTERRES
   128   64  127 1    
   129   65   66 2    
@<TRIPOS>SUBSTRUCTURE
     1 UNK         1 GROUP             0       ****    0 ROOT    
