@<TRIPOS>MOLECULE
3R135
127   129    1
SMALL
USER_CHARGES


@<TRIPOS>ATOM
      1 CA        -84.0758   26.9851  -70.9365 C.3       0 UNK        -0.1998 
      2 C         -83.7164   27.4215  -72.3488 C.2       0 UNK         0.4909 
      3 O         -84.5751   27.4087  -73.2312 O.2       0 UNK        -0.5240 
      4 N         -82.4532   27.8105  -72.5659 N.am      1 UNK        -0.4739 
      5 CA        -81.9176   28.2423  -73.8642 C.3       1 UNK         0.0864 
      6 C6        -80.5654   28.9808  -73.7104 C.3       11 UNK        -0.0881 
      7 S7        -80.7285   30.5858  -72.8461 S.3       11 UNK        -0.2682 
      8 C8        -80.4255   30.1890  -71.0889 C.3       11 UNK         0.0289 
      9 C9        -79.0421   29.6016  -70.8539 C.ar      11 UNK        -0.0687 
     10 C10       -78.8886   28.2249  -70.6668 C.ar      11 UNK        -0.0823 
     11 C11       -77.6158   27.6637  -70.5346 C.ar      11 UNK        -0.0830 
     12 C12       -76.4950   28.4988  -70.5269 C.ar      11 UNK        -0.1021 
     13 C13       -76.6380   29.8806  -70.6798 C.ar      11 UNK        -0.0753 
     14 C14       -77.9139   30.4282  -70.8459 C.ar      11 UNK        -0.0933 
     15 C15       -75.4057   30.7697  -70.6916 C.3       11 UNK         0.0166 
     16 S16       -74.7438   30.9344  -72.3766 S.3       11 UNK        -0.2615 
     17 C17       -73.0224   31.4146  -72.0068 C.3       11 UNK        -0.0865 
     18 CA        -72.2362   31.9146  -73.2553 C.3       10 UNK         0.0862 
     19 C         -70.8042   32.4148  -72.8918 C.2       10 UNK         0.5551 
     20 N         -69.8026   32.2290  -73.7430 N.am      10 UNK        -0.7319 
     21 O         -70.6012   33.0109  -71.8365 O.2       10 UNK        -0.5018 
     22 N         -72.2942   30.9863  -74.4021 N.am      10 UNK        -0.4509 
     23 C         -71.8587   29.7198  -74.4272 C.2       10 UNK         0.4899 
     24 O         -71.3208   29.1562  -73.4722 O.2       10 UNK        -0.4839 
     25 CA        -72.0731   28.9882  -75.7642 C.3       9 UNK         0.0222 
     26 CB        -71.0519   29.4332  -76.8313 C.3       9 UNK        -0.1966 
     27 N         -72.1203   27.5285  -75.6309 N.am      9 UNK        -0.4218 
     28 C         -71.1274   26.6601  -75.3855 C.2       9 UNK         0.5020 
     29 O         -69.9400   26.9624  -75.2538 O.2       9 UNK        -0.5274 
     30 CA        -71.5331   25.1763  -75.3034 C.3       8 UNK         0.0270 
     31 CB        -72.0681   24.8334  -73.9032 C.3       8 UNK        -0.1976 
     32 N         -72.5238   24.8000  -76.3179 N.am      8 UNK        -0.4313 
     33 C         -72.2818   24.7695  -77.6373 C.2       8 UNK         0.5041 
     34 O         -71.1741   24.9738  -78.1363 O.2       8 UNK        -0.5577 
     35 CA        -73.4733   24.4711  -78.5633 C.3       7 UNK         0.0284 
     36 CB        -73.7325   22.9584  -78.6484 C.3       7 UNK        -0.1958 
     37 N         -74.6978   25.1641  -78.1559 N.am      7 UNK        -0.4454 
     38 C         -74.8718   26.4935  -78.1940 C.2       7 UNK         0.5089 
     39 O         -74.0417   27.2828  -78.6450 O.2       7 UNK        -0.5125 
     40 CA        -76.1818   27.0423  -77.5988 C.3       6 UNK         0.0408 
     41 CB        -77.3201   26.9831  -78.6286 C.3       6 UNK        -0.1791 
     42 N         -76.5885   26.3505  -76.3730 N.am      6 UNK        -0.4762 
     43 C         -75.8756   26.3308  -75.2368 C.2       6 UNK         0.5007 
     44 O         -74.8098   26.9257  -75.0865 O.2       6 UNK        -0.5032 
     45 CA        -76.4226   25.4613  -74.0916 C.3       5 UNK         0.0783 
     46 C46       -77.5336   26.2203  -73.3327 C.3       11 UNK        -0.0857 
     47 S47       -78.1993   25.2972  -71.9027 S.3       11 UNK        -0.2512 
     48 C48       -77.4413   26.1510  -70.4746 C.3       11 UNK         0.0225 
     49 N         -76.8620   24.1573  -74.5928 N.am      5 UNK        -0.4615 
     50 C         -76.0460   23.2238  -75.1000 C.2       4 UNK         0.5053 
     51 O         -74.8223   23.3430  -75.1578 O.2       4 UNK        -0.5105 
     52 CA        -76.7141   21.9667  -75.6821 C.3       4 UNK         0.0263 
     53 CB        -77.0237   20.9546  -74.5680 C.3       4 UNK        -0.1981 
     54 N         -77.9410   22.2746  -76.4225 N.am      4 UNK        -0.4224 
     55 C         -77.9823   22.9934  -77.5544 C.2       3 UNK         0.4895 
     56 O         -76.9819   23.4126  -78.1340 O.2       3 UNK        -0.5091 
     57 CA        -79.3741   23.3490  -78.1069 C.3       3 UNK         0.0250 
     58 CB        -79.8811   22.2419  -79.0443 C.3       3 UNK        -0.1996 
     59 N         -80.3722   23.6074  -77.0622 N.am      3 UNK        -0.4254 
     60 C         -80.2768   24.5742  -76.1381 C.2       2 UNK         0.5004 
     61 O         -79.3270   25.3570  -76.0680 O.2       2 UNK        -0.5226 
     62 CA        -81.3955   24.6091  -75.0815 C.3       2 UNK         0.0269 
     63 CB        -81.2030   23.4676  -74.0675 C.3       2 UNK        -0.1926 
     64 N         -81.4709   25.8715  -74.3411 N.am      2 UNK        -0.4687 
     65 C         -81.8019   27.0645  -74.8579 C.2       1 UNK         0.5165 
     66 O         -82.0582   27.2491  -76.0489 O.2       1 UNK        -0.5079 
     67 H67       -84.4222   25.9520  -70.9404 H         1 UNK         0.0900 
     68 H68       -83.2259   27.0552  -70.2578 H         1 UNK         0.0900 
     69 H69       -84.8758   27.6115  -70.5429 H         1 UNK         0.0900 
     70 H70       -81.7987   27.8104  -71.7995 H         1 UNK         0.2959 
     71 H71       -82.6340   28.9426  -74.3005 H         1 UNK         0.1079 
     72 H72       -80.1465   29.2010  -74.6945 H         1 UNK         0.0837 
     73 H73       -79.8267   28.3506  -73.2163 H         1 UNK         0.0837 
     74 H74       -80.5292   31.1043  -70.5043 H         1 UNK         0.0685 
     75 H75       -81.2012   29.5150  -70.7249 H         1 UNK         0.0685 
     76 H76       -79.7536   27.5771  -70.6784 H         1 UNK         0.1434 
     77 H77       -75.5051   28.0735  -70.4317 H         1 UNK         0.1329 
     78 H78       -78.0278   31.4938  -70.9920 H         1 UNK         0.1335 
     79 H79       -75.6421   31.7585  -70.2956 H         1 UNK         0.0680 
     80 H80       -74.6432   30.3470  -70.0351 H         1 UNK         0.0680 
     81 H81       -73.0491   32.1954  -71.2442 H         1 UNK         0.1032 
     82 H82       -72.5138   30.5644  -71.5495 H         1 UNK         0.1032 
     83 H83       -72.7483   32.8120  -73.6042 H         1 UNK         0.0461 
     84 H84       -69.9574   31.7463  -74.6131 H         1 UNK         0.3453 
     85 H85       -68.8825   32.5652  -73.5060 H         1 UNK         0.3453 
     86 H86       -72.7149   31.3666  -75.2376 H         1 UNK         0.2984 
     87 H87       -73.0665   29.2633  -76.1230 H         1 UNK         0.0554 
     88 H88       -71.2022   28.8970  -77.7687 H         1 UNK         0.0847 
     89 H89       -70.0240   29.2649  -76.5092 H         1 UNK         0.0847 
     90 H90       -71.1499   30.4970  -77.0497 H         1 UNK         0.0847 
     91 H91       -73.0669   27.1526  -75.6178 H         1 UNK         0.3141 
     92 H92       -70.6363   24.5777  -75.4772 H         1 UNK         0.0743 
     93 H93       -72.9805   25.3838  -73.6723 H         1 UNK         0.0784 
     94 H94       -72.2876   23.7694  -73.8122 H         1 UNK         0.0784 
     95 H95       -71.3346   25.0814  -73.1348 H         1 UNK         0.0784 
     96 H96       -73.4474   24.5392  -75.9842 H         1 UNK         0.3213 
     97 H97       -73.2103   24.8248  -79.5626 H         1 UNK         0.0855 
     98 H98       -74.0286   22.5431  -77.6849 H         1 UNK         0.0814 
     99 H99       -72.8368   22.4267  -78.9721 H         1 UNK         0.0814 
    100 H100      -74.5211   22.7315  -79.3661 H         1 UNK         0.0814 
    101 H101      -75.4754   24.5822  -77.8547 H         1 UNK         0.3105 
    102 H102      -76.0146   28.0901  -77.3405 H         1 UNK         0.0547 
    103 H103      -77.0689   27.5614  -79.5186 H         1 UNK         0.0837 
    104 H104      -77.5203   25.9618  -78.9516 H         1 UNK         0.0837 
    105 H105      -78.2453   27.3938  -78.2237 H         1 UNK         0.0837 
    106 H106      -77.4833   25.8659  -76.3880 H         1 UNK         0.3020 
    107 H107      -75.5976   25.2874  -73.3969 H         1 UNK         0.1245 
    108 H108      -78.3720   26.4420  -73.9925 H         1 UNK         0.0781 
    109 H109      -77.1592   27.1936  -73.0158 H         1 UNK         0.0781 
    110 H110      -76.3843   25.8838  -70.4330 H         1 UNK         0.0836 
    111 H111      -77.8908   25.7745  -69.5549 H         1 UNK         0.0836 
    112 H112      -77.8594   24.0086  -74.6209 H         1 UNK         0.3022 
    113 H113      -76.0080   21.5068  -76.3768 H         1 UNK         0.0747 
    114 H114      -77.4266   20.0270  -74.9752 H         1 UNK         0.0793 
    115 H115      -76.1195   20.6973  -74.0144 H         1 UNK         0.0793 
    116 H116      -77.7443   21.3481  -73.8497 H         1 UNK         0.0793 
    117 H117      -78.8119   21.9597  -76.0215 H         1 UNK         0.3047 
    118 H118      -79.2682   24.2658  -78.6902 H         1 UNK         0.0822 
    119 H119      -80.0409   21.3022  -78.5141 H         1 UNK         0.0807 
    120 H120      -79.1623   22.0477  -79.8419 H         1 UNK         0.0807 
    121 H121      -80.8205   22.5238  -79.5205 H         1 UNK         0.0807 
    122 H122      -81.1782   22.9984  -77.0496 H         1 UNK         0.2946 
    123 H123      -82.3488   24.4714  -75.5968 H         1 UNK         0.1144 
    124 H124      -82.0084   23.4504  -73.3329 H         1 UNK         0.0793 
    125 H125      -80.2605   23.5628  -73.5267 H         1 UNK         0.0793 
    126 H126      -81.2005   22.4934  -74.5580 H         1 UNK         0.0793 
    127 H127      -81.2690   25.8247  -73.3538 H         1 UNK         0.2896 
@<TRIPOS>BOND
     1    1    2 1    
     2    1   67 1    
     3    1   68 1    
     4    1   69 1    
     5    2    3 2    
     6    2    4 am   BACKBONE|DICT|INTERRES
     7    4    5 1    
     8    4   70 1    
     9    5    6 1    
    10    5   65 1    
    11    5   71 1    
    12    6    7 1    
    13    6   72 1    
    14    6   73 1    
    15    7    8 1    
    16    8    9 1    
    17    8   74 1    
    18    8   75 1    
    19    9   10 ar   
    20    9   14 ar   
    21   10   11 ar   
    22   10   76 1    
    23   11   12 ar   
    24   11   48 1    
    25   12   13 ar   
    26   12   77 1    
    27   13   14 ar   
    28   13   15 1    
    29   14   78 1    
    30   15   16 1    
    31   15   79 1    
    32   15   80 1    
    33   16   17 1    
    34   17   18 1    
    35   17   81 1    
    36   17   82 1    
    37   18   19 1    
    38   18   22 1    
    39   18   83 1    
    40   19   20 am   BACKBONE|DICT|INTERRES
    41   19   21 2    
    42   20   84 1    
    43   20   85 1    
    44   22   23 am   BACKBONE|DICT|INTERRES
    45   22   86 1    
    46   23   24 2    
    47   23   25 1    
    48   25   26 1    
    49   25   27 1    
    50   25   87 1    
    51   26   88 1    
    52   26   89 1    
    53   26   90 1    
    54   27   28 am   BACKBONE|DICT|INTERRES
    55   27   91 1    
    56   28   29 2    
    57   28   30 1    
    58   30   31 1    
    59   30   32 1    
    60   30   92 1    
    61   31   93 1    
    62   31   94 1    
    63   31   95 1    
    64   32   33 am   BACKBONE|DICT|INTERRES
    65   32   96 1    
    66   33   34 2    
    67   33   35 1    
    68   35   36 1    
    69   35   37 1    
    70   35   97 1    
    71   36   98 1    
    72   36   99 1    
    73   36  100 1    
    74   37   38 am   BACKBONE|DICT|INTERRES
    75   37  101 1    
    76   38   39 2    
    77   38   40 1    
    78   40   41 1    
    79   40   42 1    
    80   40  102 1    
    81   41  103 1    
    82   41  104 1    
    83   41  105 1    
    84   42   43 am   BACKBONE|DICT|INTERRES
    85   42  106 1    
    86   43   44 2    
    87   43   45 1    
    88   45   46 1    
    89   45   49 1    
    90   45  107 1    
    91   46   47 1    
    92   46  108 1    
    93   46  109 1    
    94   47   48 1    
    95   48  110 1    
    96   48  111 1    
    97   49   50 am   BACKBONE|DICT|INTERRES
    98   49  112 1    
    99   50   51 2    
   100   50   52 1    
   101   52   53 1    
   102   52   54 1    
   103   52  113 1    
   104   53  114 1    
   105   53  115 1    
   106   53  116 1    
   107   54   55 am   BACKBONE|DICT|INTERRES
   108   54  117 1    
   109   55   56 2    
   110   55   57 1    
   111   57   58 1    
   112   57   59 1    
   113   57  118 1    
   114   58  119 1    
   115   58  120 1    
   116   58  121 1    
   117   59   60 am   BACKBONE|DICT|INTERRES
   118   59  122 1    
   119   60   61 2    
   120   60   62 1    
   121   62   63 1    
   122   62   64 1    
   123   62  123 1    
   124   63  124 1    
   125   63  125 1    
   126   63  126 1    
   127   64   65 am   BACKBONE|DICT|INTERRES
   128   64  127 1    
   129   65   66 2    
@<TRIPOS>SUBSTRUCTURE
     1 UNK         1 GROUP             0       ****    0 ROOT    
