@<TRIPOS>MOLECULE
3R135
127   129    1
SMALL
USER_CHARGES


@<TRIPOS>ATOM
      1 CA        -84.6273   28.9140  -73.6190 C.3       0 UNK        -0.1998 
      2 C         -83.2548   28.2599  -73.6416 C.2       0 UNK         0.4909 
      3 O         -82.4338   28.5830  -74.4987 O.2       0 UNK        -0.5240 
      4 N         -83.0008   27.3229  -72.7204 N.am      1 UNK        -0.4739 
      5 CA        -81.7193   26.6252  -72.5273 C.3       1 UNK         0.0864 
      6 C6        -81.5353   26.1677  -71.0548 C.3       11 UNK        -0.0881 
      7 S7        -81.7360   27.5320  -69.8565 S.3       11 UNK        -0.2682 
      8 C8        -80.0108   27.8756  -69.3630 C.3       11 UNK         0.0289 
      9 C9        -79.1222   28.4721  -70.4562 C.ar      11 UNK        -0.0687 
     10 C10       -79.6335   29.2887  -71.4723 C.ar      11 UNK        -0.0823 
     11 C11       -78.7952   29.8243  -72.4545 C.ar      11 UNK        -0.0830 
     12 C12       -77.4184   29.5861  -72.3786 C.ar      11 UNK        -0.1021 
     13 C13       -76.8830   28.7890  -71.3594 C.ar      11 UNK        -0.0753 
     14 C14       -77.7465   28.2286  -70.4133 C.ar      11 UNK        -0.0933 
     15 C15       -75.3869   28.4923  -71.2605 C.3       11 UNK         0.0166 
     16 S16       -74.3089   29.8673  -71.7913 S.3       11 UNK        -0.2615 
     17 C17       -73.5303   29.1924  -73.3019 C.3       11 UNK        -0.0865 
     18 CA        -72.0540   28.7614  -73.0595 C.3       10 UNK         0.0862 
     19 C         -71.9158   27.2578  -72.6686 C.2       10 UNK         0.5551 
     20 N         -71.1308   26.4484  -73.3716 N.am      10 UNK        -0.7319 
     21 O         -72.5068   26.8193  -71.6858 O.2       10 UNK        -0.5018 
     22 N         -71.1830   29.1777  -74.1706 N.am      10 UNK        -0.4509 
     23 C         -69.8865   29.4932  -74.0391 C.2       10 UNK         0.4899 
     24 O         -69.3075   29.5558  -72.9530 O.2       10 UNK        -0.4839 
     25 CA        -69.1034   29.7916  -75.3369 C.3       9 UNK         0.0222 
     26 CB        -67.5815   29.5938  -75.1669 C.3       9 UNK        -0.1966 
     27 N         -69.5849   29.0520  -76.5125 N.am      9 UNK        -0.4218 
     28 C         -69.6911   27.7215  -76.6385 C.2       9 UNK         0.5020 
     29 O         -69.4003   26.9117  -75.7542 O.2       9 UNK        -0.5274 
     30 CA        -70.2211   27.2093  -77.9865 C.3       8 UNK         0.0270 
     31 CB        -69.0687   26.6745  -78.8523 C.3       8 UNK        -0.1976 
     32 N         -71.2214   26.1567  -77.8036 N.am      8 UNK        -0.4313 
     33 C         -72.4158   26.3360  -77.2257 C.2       8 UNK         0.5041 
     34 O         -72.8147   27.4207  -76.7915 O.2       8 UNK        -0.5577 
     35 CA        -73.2974   25.0831  -77.0920 C.3       7 UNK         0.0284 
     36 CB        -73.1723   24.4866  -75.6813 C.3       7 UNK        -0.1958 
     37 N         -74.7021   25.3803  -77.3737 N.am      7 UNK        -0.4454 
     38 C         -75.1860   25.7037  -78.5818 C.2       7 UNK         0.5089 
     39 O         -74.5022   25.7207  -79.6067 O.2       7 UNK        -0.5125 
     40 CA        -76.6852   26.0480  -78.6845 C.3       6 UNK         0.0408 
     41 CB        -77.4660   24.8568  -79.2608 C.3       6 UNK        -0.1791 
     42 N         -77.2896   26.4408  -77.4100 N.am      6 UNK        -0.4762 
     43 C         -77.0328   27.5824  -76.7548 C.2       6 UNK         0.5007 
     44 O         -76.3040   28.4711  -77.1955 O.2       6 UNK        -0.5032 
     45 CA        -77.6723   27.7412  -75.3619 C.3       5 UNK         0.0783 
     46 C46       -79.0095   28.5253  -75.4093 C.3       11 UNK        -0.0857 
     47 S47       -78.7307   30.3212  -75.2386 S.3       11 UNK        -0.2512 
     48 C48       -79.3976   30.6746  -73.5729 C.3       11 UNK         0.0225 
     49 N         -77.8174   26.4495  -74.6857 N.am      5 UNK        -0.4615 
     50 C         -76.8116   25.8189  -74.0654 C.2       4 UNK         0.5053 
     51 O         -75.6666   26.2584  -74.0057 O.2       4 UNK        -0.5105 
     52 CA        -77.1259   24.4611  -73.4204 C.3       4 UNK         0.0263 
     53 CB        -77.6789   24.6639  -72.0015 C.3       4 UNK        -0.1981 
     54 N         -78.0648   23.6711  -74.2203 N.am      4 UNK        -0.4224 
     55 C         -77.7417   23.1045  -75.3940 C.2       3 UNK         0.4895 
     56 O         -76.6117   23.1399  -75.8803 O.2       3 UNK        -0.5091 
     57 CA        -78.8648   22.4064  -76.1827 C.3       3 UNK         0.0250 
     58 CB        -78.9094   20.9093  -75.8387 C.3       3 UNK        -0.1996 
     59 N         -80.1948   22.9885  -75.9847 N.am      3 UNK        -0.4254 
     60 C         -80.5321   24.2644  -76.2183 C.2       2 UNK         0.5004 
     61 O         -79.7439   25.1171  -76.6293 O.2       2 UNK        -0.5226 
     62 CA        -81.9739   24.6866  -75.8867 C.3       2 UNK         0.0269 
     63 CB        -82.9371   23.5080  -75.6160 C.3       2 UNK        -0.1926 
     64 N         -82.0062   25.6350  -74.7683 N.am      2 UNK        -0.4687 
     65 C         -81.5054   25.4692  -73.5343 C.2       1 UNK         0.5165 
     66 O         -80.8942   24.4570  -73.1842 O.2       1 UNK        -0.5079 
     67 H67       -85.2487   28.5293  -72.8106 H         1 UNK         0.0900 
     68 H68       -85.1444   28.7340  -74.5610 H         1 UNK         0.0900 
     69 H69       -84.5258   29.9907  -73.4858 H         1 UNK         0.0900 
     70 H70       -83.7208   27.0835  -72.0533 H         1 UNK         0.2959 
     71 H71       -80.9186   27.3303  -72.7479 H         1 UNK         0.1079 
     72 H72       -82.2639   25.3936  -70.8071 H         1 UNK         0.0837 
     73 H73       -80.5556   25.7128  -70.9048 H         1 UNK         0.0837 
     74 H74       -80.0292   28.5731  -68.5247 H         1 UNK         0.0685 
     75 H75       -79.5725   26.9515  -68.9826 H         1 UNK         0.0685 
     76 H76       -80.6928   29.5020  -71.5084 H         1 UNK         0.1434 
     77 H77       -76.7647   30.0186  -73.1224 H         1 UNK         0.1329 
     78 H78       -77.3412   27.6069  -69.6264 H         1 UNK         0.1335 
     79 H79       -75.1663   27.5890  -71.8273 H         1 UNK         0.0680 
     80 H80       -75.1260   28.2629  -70.2262 H         1 UNK         0.0680 
     81 H81       -74.1257   28.3833  -73.7286 H         1 UNK         0.1032 
     82 H82       -73.5741   29.9917  -74.0433 H         1 UNK         0.1032 
     83 H83       -71.7008   29.3048  -72.1809 H         1 UNK         0.0461 
     84 H84       -71.0449   25.4869  -73.0861 H         1 UNK         0.3453 
     85 H85       -70.6027   26.7838  -74.1701 H         1 UNK         0.3453 
     86 H86       -71.5737   29.0937  -75.0991 H         1 UNK         0.2984 
     87 H87       -69.2750   30.8472  -75.5521 H         1 UNK         0.0554 
     88 H88       -67.0444   29.8315  -76.0851 H         1 UNK         0.0847 
     89 H89       -67.3366   28.5673  -74.8914 H         1 UNK         0.0847 
     90 H90       -67.1843   30.2435  -74.3859 H         1 UNK         0.0847 
     91 H91       -69.8715   29.6250  -77.2950 H         1 UNK         0.3141 
     92 H92       -70.7005   28.0335  -78.5192 H         1 UNK         0.0743 
     93 H93       -68.5629   25.8331  -78.3763 H         1 UNK         0.0784 
     94 H94       -69.4238   26.3454  -79.8291 H         1 UNK         0.0784 
     95 H95       -68.3193   27.4483  -79.0253 H         1 UNK         0.0784 
     96 H96       -70.9537   25.2271  -78.0926 H         1 UNK         0.3213 
     97 H97       -72.9664   24.3332  -77.8138 H         1 UNK         0.0855 
     98 H98       -73.4425   25.2120  -74.9134 H         1 UNK         0.0814 
     99 H99       -72.1470   24.1737  -75.4806 H         1 UNK         0.0814 
    100 H100      -73.8110   23.6117  -75.5576 H         1 UNK         0.0814 
    101 H101      -75.3304   25.4037  -76.5830 H         1 UNK         0.3105 
    102 H102      -76.7841   26.8872  -79.3760 H         1 UNK         0.0547 
    103 H103      -77.0961   24.5909  -80.2519 H         1 UNK         0.0837 
    104 H104      -77.3684   23.9733  -78.6302 H         1 UNK         0.0837 
    105 H105      -78.5275   25.0844  -79.3606 H         1 UNK         0.0837 
    106 H106      -77.9782   25.8053  -77.0150 H         1 UNK         0.3020 
    107 H107      -76.9548   28.3194  -74.7768 H         1 UNK         0.1245 
    108 H108      -79.6693   28.2075  -74.6021 H         1 UNK         0.0781 
    109 H109      -79.5667   28.3282  -76.3275 H         1 UNK         0.0781 
    110 H110      -80.4804   30.5430  -73.6108 H         1 UNK         0.0836 
    111 H111      -79.2243   31.7264  -73.3427 H         1 UNK         0.0836 
    112 H112      -78.7083   25.9830  -74.7831 H         1 UNK         0.3022 
    113 H113      -76.1905   23.9021  -73.3427 H         1 UNK         0.0747 
    114 H114      -76.9436   25.1620  -71.3679 H         1 UNK         0.0793 
    115 H115      -78.5724   25.2867  -72.0052 H         1 UNK         0.0793 
    116 H116      -77.9285   23.7145  -71.5278 H         1 UNK         0.0793 
    117 H117      -79.0249   23.6257  -73.8957 H         1 UNK         0.3047 
    118 H118      -78.6256   22.5034  -77.2430 H         1 UNK         0.0822 
    119 H119      -79.6285   20.3786  -76.4630 H         1 UNK         0.0807 
    120 H120      -79.1807   20.7424  -74.7954 H         1 UNK         0.0807 
    121 H121      -77.9367   20.4425  -76.0012 H         1 UNK         0.0807 
    122 H122      -80.9047   22.3743  -75.6126 H         1 UNK         0.2946 
    123 H123      -82.3391   25.2206  -76.7657 H         1 UNK         0.1144 
    124 H124      -82.9575   22.8120  -76.4560 H         1 UNK         0.0793 
    125 H125      -82.6677   22.9462  -74.7208 H         1 UNK         0.0793 
    126 H126      -83.9574   23.8664  -75.4788 H         1 UNK         0.0793 
    127 H127      -82.4110   26.5427  -74.9700 H         1 UNK         0.2896 
@<TRIPOS>BOND
     1    1    2 1    
     2    1   67 1    
     3    1   68 1    
     4    1   69 1    
     5    2    3 2    
     6    2    4 am   BACKBONE|DICT|INTERRES
     7    4    5 1    
     8    4   70 1    
     9    5    6 1    
    10    5   65 1    
    11    5   71 1    
    12    6    7 1    
    13    6   72 1    
    14    6   73 1    
    15    7    8 1    
    16    8    9 1    
    17    8   74 1    
    18    8   75 1    
    19    9   10 ar   
    20    9   14 ar   
    21   10   11 ar   
    22   10   76 1    
    23   11   12 ar   
    24   11   48 1    
    25   12   13 ar   
    26   12   77 1    
    27   13   14 ar   
    28   13   15 1    
    29   14   78 1    
    30   15   16 1    
    31   15   79 1    
    32   15   80 1    
    33   16   17 1    
    34   17   18 1    
    35   17   81 1    
    36   17   82 1    
    37   18   19 1    
    38   18   22 1    
    39   18   83 1    
    40   19   20 am   BACKBONE|DICT|INTERRES
    41   19   21 2    
    42   20   84 1    
    43   20   85 1    
    44   22   23 am   BACKBONE|DICT|INTERRES
    45   22   86 1    
    46   23   24 2    
    47   23   25 1    
    48   25   26 1    
    49   25   27 1    
    50   25   87 1    
    51   26   88 1    
    52   26   89 1    
    53   26   90 1    
    54   27   28 am   BACKBONE|DICT|INTERRES
    55   27   91 1    
    56   28   29 2    
    57   28   30 1    
    58   30   31 1    
    59   30   32 1    
    60   30   92 1    
    61   31   93 1    
    62   31   94 1    
    63   31   95 1    
    64   32   33 am   BACKBONE|DICT|INTERRES
    65   32   96 1    
    66   33   34 2    
    67   33   35 1    
    68   35   36 1    
    69   35   37 1    
    70   35   97 1    
    71   36   98 1    
    72   36   99 1    
    73   36  100 1    
    74   37   38 am   BACKBONE|DICT|INTERRES
    75   37  101 1    
    76   38   39 2    
    77   38   40 1    
    78   40   41 1    
    79   40   42 1    
    80   40  102 1    
    81   41  103 1    
    82   41  104 1    
    83   41  105 1    
    84   42   43 am   BACKBONE|DICT|INTERRES
    85   42  106 1    
    86   43   44 2    
    87   43   45 1    
    88   45   46 1    
    89   45   49 1    
    90   45  107 1    
    91   46   47 1    
    92   46  108 1    
    93   46  109 1    
    94   47   48 1    
    95   48  110 1    
    96   48  111 1    
    97   49   50 am   BACKBONE|DICT|INTERRES
    98   49  112 1    
    99   50   51 2    
   100   50   52 1    
   101   52   53 1    
   102   52   54 1    
   103   52  113 1    
   104   53  114 1    
   105   53  115 1    
   106   53  116 1    
   107   54   55 am   BACKBONE|DICT|INTERRES
   108   54  117 1    
   109   55   56 2    
   110   55   57 1    
   111   57   58 1    
   112   57   59 1    
   113   57  118 1    
   114   58  119 1    
   115   58  120 1    
   116   58  121 1    
   117   59   60 am   BACKBONE|DICT|INTERRES
   118   59  122 1    
   119   60   61 2    
   120   60   62 1    
   121   62   63 1    
   122   62   64 1    
   123   62  123 1    
   124   63  124 1    
   125   63  125 1    
   126   63  126 1    
   127   64   65 am   BACKBONE|DICT|INTERRES
   128   64  127 1    
   129   65   66 2    
@<TRIPOS>SUBSTRUCTURE
     1 UNK         1 GROUP             0       ****    0 ROOT    
