@<TRIPOS>MOLECULE
3R135
127   129    1
SMALL
USER_CHARGES


@<TRIPOS>ATOM
      1 CA        -84.4552   29.0388  -74.7281 C.3       0 UNK        -0.1998 
      2 C         -82.9430   29.1359  -74.5928 C.2       0 UNK         0.4909 
      3 O         -82.3393   30.0699  -75.1223 O.2       0 UNK        -0.5240 
      4 N         -82.3293   28.1846  -73.8791 N.am      1 UNK        -0.4739 
      5 CA        -80.8785   28.0866  -73.6904 C.3       1 UNK         0.0864 
      6 C6        -80.5121   27.1019  -72.5555 C.3       11 UNK        -0.0881 
      7 S7        -81.2543   27.5100  -70.9329 S.3       11 UNK        -0.2682 
      8 C8        -80.2076   28.8633  -70.2830 C.3       11 UNK         0.0289 
      9 C9        -78.7182   28.6300  -70.4970 C.ar      11 UNK        -0.0687 
     10 C10       -78.0980   27.4831  -69.9922 C.ar      11 UNK        -0.0823 
     11 C11       -76.7662   27.1941  -70.3130 C.ar      11 UNK        -0.0830 
     12 C12       -76.0377   28.1049  -71.0848 C.ar      11 UNK        -0.1021 
     13 C13       -76.6333   29.2788  -71.5548 C.ar      11 UNK        -0.0753 
     14 C14       -77.9737   29.5358  -71.2563 C.ar      11 UNK        -0.0933 
     15 C15       -75.8481   30.2516  -72.4207 C.3       11 UNK         0.0166 
     16 S16       -76.4762   30.2264  -74.1246 S.3       11 UNK        -0.2615 
     17 C17       -75.2727   31.2752  -75.0008 C.3       11 UNK        -0.0865 
     18 CA        -74.3382   30.4429  -75.9271 C.3       10 UNK         0.0862 
     19 C         -73.5401   31.3125  -76.9433 C.2       10 UNK         0.5551 
     20 N         -72.7084   30.7018  -77.7769 N.am      10 UNK        -0.7319 
     21 O         -73.6704   32.5341  -76.9880 O.2       10 UNK        -0.5018 
     22 N         -73.4784   29.5028  -75.1874 N.am      10 UNK        -0.4509 
     23 C         -72.4800   29.8414  -74.3573 C.2       10 UNK         0.4899 
     24 O         -72.2039   30.9967  -74.0339 O.2       10 UNK        -0.4839 
     25 CA        -71.6274   28.6906  -73.8042 C.3       9 UNK         0.0222 
     26 CB        -72.3235   28.0156  -72.6123 C.3       9 UNK        -0.1966 
     27 N         -71.3395   27.7038  -74.8465 N.am      9 UNK        -0.4218 
     28 C         -70.3756   27.8501  -75.7690 C.2       9 UNK         0.5020 
     29 O         -69.5663   28.7788  -75.7706 O.2       9 UNK        -0.5274 
     30 CA        -70.2842   26.7881  -76.8810 C.3       8 UNK         0.0270 
     31 CB        -69.2210   25.7343  -76.5297 C.3       8 UNK        -0.1976 
     32 N         -71.5541   26.1146  -77.1605 N.am      8 UNK        -0.4313 
     33 C         -72.6303   26.6968  -77.7080 C.2       8 UNK         0.5041 
     34 O         -72.6633   27.8698  -78.0790 O.2       8 UNK        -0.5577 
     35 CA        -73.9007   25.8332  -77.8079 C.3       7 UNK         0.0284 
     36 CB        -73.9229   25.0671  -79.1404 C.3       7 UNK        -0.1958 
     37 N         -74.0505   24.8913  -76.6897 N.am      7 UNK        -0.4454 
     38 C         -74.1639   25.2596  -75.4065 C.2       7 UNK         0.5089 
     39 O         -74.1578   26.4345  -75.0326 O.2       7 UNK        -0.5125 
     40 CA        -74.2743   24.1371  -74.3707 C.3       6 UNK         0.0408 
     41 CB        -73.2673   24.3521  -73.2212 C.3       6 UNK        -0.1791 
     42 N         -75.6457   24.1115  -73.8730 N.am      6 UNK        -0.4762 
     43 C         -76.1744   23.1755  -73.0735 C.2       6 UNK         0.5007 
     44 O         -75.5615   22.1777  -72.6907 O.2       6 UNK        -0.5032 
     45 CA        -77.6409   23.3660  -72.6512 C.3       5 UNK         0.0783 
     46 C46       -77.8443   24.6089  -71.7564 C.3       11 UNK        -0.0857 
     47 S47       -77.1954   24.4170  -70.0602 S.3       11 UNK        -0.2512 
     48 C48       -76.1129   25.8815  -69.8815 C.3       11 UNK         0.0225 
     49 N         -78.4844   23.4463  -73.8426 N.am      5 UNK        -0.4615 
     50 C         -79.5203   22.6411  -74.1123 C.2       4 UNK         0.5053 
     51 O         -79.8884   21.7307  -73.3694 O.2       4 UNK        -0.5105 
     52 CA        -80.2958   22.8851  -75.4236 C.3       4 UNK         0.0263 
     53 CB        -81.6420   23.5679  -75.1316 C.3       4 UNK        -0.1981 
     54 N         -79.5530   23.6853  -76.4007 N.am      4 UNK        -0.4224 
     55 C         -78.4697   23.2542  -77.0636 C.2       3 UNK         0.4895 
     56 O         -78.0605   22.0940  -77.0132 O.2       3 UNK        -0.5091 
     57 CA        -77.6805   24.2806  -77.8994 C.3       3 UNK         0.0250 
     58 CB        -77.9263   24.0550  -79.4001 C.3       3 UNK        -0.1996 
     59 N         -77.9322   25.6919  -77.5834 N.am      3 UNK        -0.4254 
     60 C         -77.7714   26.2805  -76.3899 C.2       2 UNK         0.5004 
     61 O         -77.4481   25.6735  -75.3671 O.2       2 UNK        -0.5226 
     62 CA        -78.0346   27.7937  -76.3015 C.3       2 UNK         0.0269 
     63 CB        -78.5370   28.4415  -77.6120 C.3       2 UNK        -0.1926 
     64 N         -78.9308   28.1206  -75.1851 N.am      2 UNK        -0.4687 
     65 C         -80.1757   27.6577  -74.9968 C.2       1 UNK         0.5165 
     66 O         -80.7471   26.8883  -75.7757 O.2       1 UNK        -0.5079 
     67 H67       -84.7326   28.9521  -75.7782 H         1 UNK         0.0900 
     68 H68       -84.8572   28.1750  -74.1988 H         1 UNK         0.0900 
     69 H69       -84.9267   29.9339  -74.3231 H         1 UNK         0.0900 
     70 H70       -82.8722   27.4382  -73.4698 H         1 UNK         0.2959 
     71 H71       -80.5098   29.0785  -73.4189 H         1 UNK         0.1079 
     72 H72       -79.4294   27.0293  -72.4527 H         1 UNK         0.0837 
     73 H73       -80.8432   26.0943  -72.8142 H         1 UNK         0.0837 
     74 H74       -80.4016   28.9794  -69.2160 H         1 UNK         0.0685 
     75 H75       -80.5227   29.7953  -70.7546 H         1 UNK         0.0685 
     76 H76       -78.6775   26.7808  -69.4088 H         1 UNK         0.1434 
     77 H77       -75.0098   27.8897  -71.3372 H         1 UNK         0.1329 
     78 H78       -78.4428   30.4277  -71.6489 H         1 UNK         0.1335 
     79 H79       -75.9336   31.2602  -72.0139 H         1 UNK         0.0680 
     80 H80       -74.7871   29.9998  -72.4198 H         1 UNK         0.0680 
     81 H81       -74.6984   31.8727  -74.2915 H         1 UNK         0.1032 
     82 H82       -75.8503   31.9895  -75.5902 H         1 UNK         0.1032 
     83 H83       -74.9834   29.8213  -76.5495 H         1 UNK         0.0461 
     84 H84       -72.1830   31.2488  -78.4394 H         1 UNK         0.3453 
     85 H85       -72.6393   29.6853  -77.7920 H         1 UNK         0.3453 
     86 H86       -73.6493   28.5198  -75.3613 H         1 UNK         0.2984 
     87 H87       -70.6850   29.1087  -73.4434 H         1 UNK         0.0554 
     88 H88       -73.2988   27.6169  -72.8879 H         1 UNK         0.0847 
     89 H89       -72.4820   28.7288  -71.8023 H         1 UNK         0.0847 
     90 H90       -71.7248   27.1978  -72.2115 H         1 UNK         0.0847 
     91 H91       -72.0010   26.9455  -74.9460 H         1 UNK         0.3141 
     92 H92       -69.9704   27.2997  -77.7936 H         1 UNK         0.0743 
     93 H93       -69.0826   25.0222  -77.3435 H         1 UNK         0.0784 
     94 H94       -68.2533   26.2034  -76.3455 H         1 UNK         0.0784 
     95 H95       -69.4868   25.1741  -75.6322 H         1 UNK         0.0784 
     96 H96       -71.6212   25.1416  -76.8996 H         1 UNK         0.3213 
     97 H97       -74.7577   26.5101  -77.7869 H         1 UNK         0.0855 
     98 H98       -73.0960   24.3598  -79.2155 H         1 UNK         0.0814 
     99 H99       -73.8399   25.7540  -79.9840 H         1 UNK         0.0814 
    100 H100      -74.8507   24.5120  -79.2709 H         1 UNK         0.0814 
    101 H101      -74.0615   23.9072  -76.9178 H         1 UNK         0.3105 
    102 H102      -74.0583   23.1829  -74.8553 H         1 UNK         0.0547 
    103 H103      -73.2193   23.4859  -72.5620 H         1 UNK         0.0837 
    104 H104      -73.5331   25.2159  -72.6119 H         1 UNK         0.0837 
    105 H105      -72.2594   24.5166  -73.6040 H         1 UNK         0.0837 
    106 H106      -76.2363   24.8684  -74.2171 H         1 UNK         0.3020 
    107 H107      -77.9144   22.4840  -72.0672 H         1 UNK         0.1245 
    108 H108      -78.9123   24.8002  -71.6464 H         1 UNK         0.0781 
    109 H109      -77.4334   25.4980  -72.2373 H         1 UNK         0.0781 
    110 H110      -75.2060   25.7005  -70.4610 H         1 UNK         0.0836 
    111 H111      -75.8022   25.9670  -68.8396 H         1 UNK         0.0836 
    112 H112      -78.2297   24.1649  -74.5150 H         1 UNK         0.3022 
    113 H113      -80.4989   21.9086  -75.8687 H         1 UNK         0.0747 
    114 H114      -82.2224   23.7106  -76.0433 H         1 UNK         0.0793 
    115 H115      -82.2472   22.9638  -74.4542 H         1 UNK         0.0793 
    116 H116      -81.5071   24.5431  -74.6639 H         1 UNK         0.0793 
    117 H117      -79.8191   24.6578  -76.4884 H         1 UNK         0.3047 
    118 H118      -76.6260   24.0932  -77.6934 H         1 UNK         0.0822 
    119 H119      -77.2956   24.7016  -80.0105 H         1 UNK         0.0807 
    120 H120      -78.9656   24.2462  -79.6705 H         1 UNK         0.0807 
    121 H121      -77.7002   23.0260  -79.6840 H         1 UNK         0.0807 
    122 H122      -78.2378   26.2703  -78.3527 H         1 UNK         0.2946 
    123 H123      -77.0640   28.2324  -76.0701 H         1 UNK         0.1144 
    124 H124      -79.4934   28.0297  -77.9370 H         1 UNK         0.0793 
    125 H125      -77.8195   28.3100  -78.4231 H         1 UNK         0.0793 
    126 H126      -78.6714   29.5158  -77.4845 H         1 UNK         0.0793 
    127 H127      -78.5178   28.7089  -74.4728 H         1 UNK         0.2896 
@<TRIPOS>BOND
     1    1    2 1    
     2    1   67 1    
     3    1   68 1    
     4    1   69 1    
     5    2    3 2    
     6    2    4 am   BACKBONE|DICT|INTERRES
     7    4    5 1    
     8    4   70 1    
     9    5    6 1    
    10    5   65 1    
    11    5   71 1    
    12    6    7 1    
    13    6   72 1    
    14    6   73 1    
    15    7    8 1    
    16    8    9 1    
    17    8   74 1    
    18    8   75 1    
    19    9   10 ar   
    20    9   14 ar   
    21   10   11 ar   
    22   10   76 1    
    23   11   12 ar   
    24   11   48 1    
    25   12   13 ar   
    26   12   77 1    
    27   13   14 ar   
    28   13   15 1    
    29   14   78 1    
    30   15   16 1    
    31   15   79 1    
    32   15   80 1    
    33   16   17 1    
    34   17   18 1    
    35   17   81 1    
    36   17   82 1    
    37   18   19 1    
    38   18   22 1    
    39   18   83 1    
    40   19   20 am   BACKBONE|DICT|INTERRES
    41   19   21 2    
    42   20   84 1    
    43   20   85 1    
    44   22   23 am   BACKBONE|DICT|INTERRES
    45   22   86 1    
    46   23   24 2    
    47   23   25 1    
    48   25   26 1    
    49   25   27 1    
    50   25   87 1    
    51   26   88 1    
    52   26   89 1    
    53   26   90 1    
    54   27   28 am   BACKBONE|DICT|INTERRES
    55   27   91 1    
    56   28   29 2    
    57   28   30 1    
    58   30   31 1    
    59   30   32 1    
    60   30   92 1    
    61   31   93 1    
    62   31   94 1    
    63   31   95 1    
    64   32   33 am   BACKBONE|DICT|INTERRES
    65   32   96 1    
    66   33   34 2    
    67   33   35 1    
    68   35   36 1    
    69   35   37 1    
    70   35   97 1    
    71   36   98 1    
    72   36   99 1    
    73   36  100 1    
    74   37   38 am   BACKBONE|DICT|INTERRES
    75   37  101 1    
    76   38   39 2    
    77   38   40 1    
    78   40   41 1    
    79   40   42 1    
    80   40  102 1    
    81   41  103 1    
    82   41  104 1    
    83   41  105 1    
    84   42   43 am   BACKBONE|DICT|INTERRES
    85   42  106 1    
    86   43   44 2    
    87   43   45 1    
    88   45   46 1    
    89   45   49 1    
    90   45  107 1    
    91   46   47 1    
    92   46  108 1    
    93   46  109 1    
    94   47   48 1    
    95   48  110 1    
    96   48  111 1    
    97   49   50 am   BACKBONE|DICT|INTERRES
    98   49  112 1    
    99   50   51 2    
   100   50   52 1    
   101   52   53 1    
   102   52   54 1    
   103   52  113 1    
   104   53  114 1    
   105   53  115 1    
   106   53  116 1    
   107   54   55 am   BACKBONE|DICT|INTERRES
   108   54  117 1    
   109   55   56 2    
   110   55   57 1    
   111   57   58 1    
   112   57   59 1    
   113   57  118 1    
   114   58  119 1    
   115   58  120 1    
   116   58  121 1    
   117   59   60 am   BACKBONE|DICT|INTERRES
   118   59  122 1    
   119   60   61 2    
   120   60   62 1    
   121   62   63 1    
   122   62   64 1    
   123   62  123 1    
   124   63  124 1    
   125   63  125 1    
   126   63  126 1    
   127   64   65 am   BACKBONE|DICT|INTERRES
   128   64  127 1    
   129   65   66 2    
@<TRIPOS>SUBSTRUCTURE
     1 UNK         1 GROUP             0       ****    0 ROOT    
