@<TRIPOS>MOLECULE
3R135
127   129    1
SMALL
USER_CHARGES


@<TRIPOS>ATOM
      1 CA        -78.9891   22.4097  -70.8693 C.3       0 UNK        -0.1998 
      2 C         -79.8616   23.4360  -71.5749 C.2       0 UNK         0.4909 
      3 O         -80.6129   23.0789  -72.4830 O.2       0 UNK        -0.5240 
      4 N         -79.7687   24.7100  -71.1684 N.am      1 UNK        -0.4739 
      5 CA        -80.5094   25.8288  -71.7613 C.3       1 UNK         0.0864 
      6 C6        -80.3403   27.1249  -70.9329 C.3       11 UNK        -0.0881 
      7 S7        -81.5973   28.3737  -71.3670 S.3       11 UNK        -0.2682 
      8 C8        -80.8999   29.8758  -70.6094 C.3       11 UNK         0.0289 
      9 C9        -79.5901   30.3488  -71.2366 C.ar      11 UNK        -0.0687 
     10 C10       -79.4335   30.4367  -72.6260 C.ar      11 UNK        -0.0823 
     11 C11       -78.2544   30.9503  -73.1778 C.ar      11 UNK        -0.0830 
     12 C12       -77.2334   31.3871  -72.3284 C.ar      11 UNK        -0.1021 
     13 C13       -77.3650   31.2858  -70.9394 C.ar      11 UNK        -0.0753 
     14 C14       -78.5465   30.7654  -70.4044 C.ar      11 UNK        -0.0933 
     15 C15       -76.2670   31.7759  -69.9979 C.3       11 UNK         0.0166 
     16 S16       -74.5751   31.3740  -70.5465 S.3       11 UNK        -0.2615 
     17 C17       -74.6060   29.5489  -70.5177 C.3       11 UNK        -0.0865 
     18 CA        -73.4144   28.9351  -71.2983 C.3       10 UNK         0.0862 
     19 C         -73.3420   27.3898  -71.1091 C.2       10 UNK         0.5551 
     20 N         -73.2731   26.5773  -72.1573 N.am      10 UNK        -0.7319 
     21 O         -73.3365   26.9146  -69.9761 O.2       10 UNK        -0.5018 
     22 N         -73.4073   29.3728  -72.7032 N.am      10 UNK        -0.4509 
     23 C         -72.3099   29.5081  -73.4532 C.2       10 UNK         0.4899 
     24 O         -71.1574   29.3664  -73.0385 O.2       10 UNK        -0.4839 
     25 CA        -72.5470   29.8426  -74.9358 C.3       9 UNK         0.0222 
     26 CB        -72.0360   31.2537  -75.2680 C.3       9 UNK        -0.1966 
     27 N         -71.9196   28.8654  -75.8311 N.am      9 UNK        -0.4218 
     28 C         -72.1637   27.5481  -75.8126 C.2       9 UNK         0.5020 
     29 O         -72.9221   27.0012  -75.0103 O.2       9 UNK        -0.5274 
     30 CA        -71.4259   26.6890  -76.8407 C.3       8 UNK         0.0270 
     31 CB        -70.2015   26.0059  -76.2033 C.3       8 UNK        -0.1976 
     32 N         -72.3589   25.6911  -77.3584 N.am      8 UNK        -0.4313 
     33 C         -72.2222   25.0359  -78.5175 C.2       8 UNK         0.5041 
     34 O         -71.2505   25.1597  -79.2651 O.2       8 UNK        -0.5577 
     35 CA        -73.3722   24.1069  -78.9328 C.3       7 UNK         0.0284 
     36 CB        -73.3642   22.8042  -78.1147 C.3       7 UNK        -0.1958 
     37 N         -74.6632   24.7825  -78.7953 N.am      7 UNK        -0.4454 
     38 C         -75.2007   25.5732  -79.7354 C.2       7 UNK         0.5089 
     39 O         -74.6975   25.7511  -80.8455 O.2       7 UNK        -0.5125 
     40 CA        -76.5263   26.2852  -79.4026 C.3       6 UNK         0.0408 
     41 CB        -77.7126   25.4732  -79.9459 C.3       6 UNK        -0.1791 
     42 N         -76.7279   26.5399  -77.9740 N.am      6 UNK        -0.4762 
     43 C         -75.9817   27.3718  -77.2312 C.2       6 UNK         0.5007 
     44 O         -75.0734   28.0629  -77.6938 O.2       6 UNK        -0.5032 
     45 CA        -76.2631   27.3989  -75.7115 C.3       5 UNK         0.0783 
     46 C46       -77.3333   28.4539  -75.3343 C.3       11 UNK        -0.0857 
     47 S47       -76.6715   30.1502  -75.3311 S.3       11 UNK        -0.2512 
     48 C48       -78.0966   31.0873  -74.6874 C.3       11 UNK         0.0225 
     49 N         -76.5932   26.0812  -75.1546 N.am      5 UNK        -0.4615 
     50 C         -75.8427   24.9733  -75.2476 C.2       4 UNK         0.5053 
     51 O         -74.7972   24.8964  -75.8898 O.2       4 UNK        -0.5105 
     52 CA        -76.3795   23.7198  -74.5463 C.3       4 UNK         0.0263 
     53 CB        -76.2313   23.8301  -73.0199 C.3       4 UNK        -0.1981 
     54 N         -77.7766   23.4870  -74.9086 N.am      4 UNK        -0.4224 
     55 C         -78.1651   22.9370  -76.0686 C.2       3 UNK         0.4895 
     56 O         -77.3891   22.4585  -76.8961 O.2       3 UNK        -0.5091 
     57 CA        -79.6729   22.9425  -76.3744 C.3       3 UNK         0.0250 
     58 CB        -80.3405   21.6679  -75.8345 C.3       3 UNK        -0.1996 
     59 N         -80.3619   24.1222  -75.8444 N.am      3 UNK        -0.4254 
     60 C         -80.1555   25.3752  -76.2773 C.2       2 UNK         0.5004 
     61 O         -79.3811   25.6661  -77.1870 O.2       2 UNK        -0.5226 
     62 CA        -80.8988   26.5034  -75.5428 C.3       2 UNK         0.0269 
     63 CB        -82.2619   26.7683  -76.2004 C.3       2 UNK        -0.1926 
     64 N         -81.0865   26.2601  -74.1095 N.am      2 UNK        -0.4687 
     65 C         -80.0975   26.0446  -73.2310 C.2       1 UNK         0.5165 
     66 O         -78.9043   26.0053  -73.5391 O.2       1 UNK        -0.5079 
     67 H67       -79.5985   21.7895  -70.2127 H         1 UNK         0.0900 
     68 H68       -78.5079   21.7596  -71.5993 H         1 UNK         0.0900 
     69 H69       -78.2103   22.8816  -70.2704 H         1 UNK         0.0900 
     70 H70       -79.1167   24.9515  -70.4361 H         1 UNK         0.2959 
     71 H71       -81.5638   25.5435  -71.7389 H         1 UNK         0.1079 
     72 H72       -79.3379   27.5405  -71.0576 H         1 UNK         0.0837 
     73 H73       -80.4508   26.9089  -69.8690 H         1 UNK         0.0837 
     74 H74       -81.6321   30.6792  -70.6989 H         1 UNK         0.0685 
     75 H75       -80.7746   29.6936  -69.5408 H         1 UNK         0.0685 
     76 H76       -80.2401   30.1246  -73.2752 H         1 UNK         0.1434 
     77 H77       -76.3328   31.8075  -72.7547 H         1 UNK         0.1329 
     78 H78       -78.6652   30.7099  -69.3307 H         1 UNK         0.1335 
     79 H79       -76.3528   32.8590  -69.9024 H         1 UNK         0.0680 
     80 H80       -76.4081   31.3653  -68.9967 H         1 UNK         0.0680 
     81 H81       -74.5897   29.2334  -69.4726 H         1 UNK         0.1032 
     82 H82       -75.5501   29.1893  -70.9309 H         1 UNK         0.1032 
     83 H83       -72.5054   29.3169  -70.8294 H         1 UNK         0.0461 
     84 H84       -73.2280   26.9304  -73.1091 H         1 UNK         0.3453 
     85 H85       -73.2150   25.5856  -71.9971 H         1 UNK         0.3453 
     86 H86       -74.3130   29.5025  -73.1288 H         1 UNK         0.2984 
     87 H87       -73.6198   29.8172  -75.1368 H         1 UNK         0.0554 
     88 H88       -72.5052   31.9983  -74.6234 H         1 UNK         0.0847 
     89 H89       -72.2658   31.5288  -76.2976 H         1 UNK         0.0847 
     90 H90       -70.9573   31.3362  -75.1286 H         1 UNK         0.0847 
     91 H91       -71.2542   29.2270  -76.4987 H         1 UNK         0.3141 
     92 H92       -71.0993   27.3272  -77.6646 H         1 UNK         0.0743 
     93 H93       -70.4944   25.3369  -75.3929 H         1 UNK         0.0784 
     94 H94       -69.6429   25.4217  -76.9346 H         1 UNK         0.0784 
     95 H95       -69.5153   26.7440  -75.7863 H         1 UNK         0.0784 
     96 H96       -73.1891   25.5412  -76.7842 H         1 UNK         0.3213 
     97 H97       -73.2222   23.8353  -79.9802 H         1 UNK         0.0855 
     98 H98       -73.4618   22.9868  -77.0447 H         1 UNK         0.0814 
     99 H99       -72.4310   22.2601  -78.2651 H         1 UNK         0.0814 
    100 H100      -74.1775   22.1433  -78.4151 H         1 UNK         0.0814 
    101 H101      -75.0979   24.7440  -77.8793 H         1 UNK         0.3105 
    102 H102      -76.5148   27.2505  -79.9127 H         1 UNK         0.0547 
    103 H103      -77.5917   25.2633  -81.0095 H         1 UNK         0.0837 
    104 H104      -77.8136   24.5161  -79.4319 H         1 UNK         0.0837 
    105 H105      -78.6506   26.0160  -79.8294 H         1 UNK         0.0837 
    106 H106      -77.5078   26.0570  -77.5340 H         1 UNK         0.3020 
    107 H107      -75.3296   27.6881  -75.2288 H         1 UNK         0.1245 
    108 H108      -77.7119   28.2625  -74.3289 H         1 UNK         0.0781 
    109 H109      -78.1948   28.4000  -76.0014 H         1 UNK         0.0781 
    110 H110      -79.0020   30.7741  -75.2098 H         1 UNK         0.0836 
    111 H111      -77.9564   32.1421  -74.9278 H         1 UNK         0.0836 
    112 H112      -77.4436   26.0368  -74.5960 H         1 UNK         0.3022 
    113 H113      -75.7801   22.8688  -74.8777 H         1 UNK         0.0747 
    114 H114      -76.5150   22.8997  -72.5296 H         1 UNK         0.0793 
    115 H115      -75.1955   24.0343  -72.7458 H         1 UNK         0.0793 
    116 H116      -76.8400   24.6318  -72.6016 H         1 UNK         0.0793 
    117 H117      -78.4787   23.9068  -74.3136 H         1 UNK         0.3047 
    118 H118      -79.7855   22.9521  -77.4608 H         1 UNK         0.0822 
    119 H119      -81.3957   21.6266  -76.1051 H         1 UNK         0.0807 
    120 H120      -80.2690   21.6019  -74.7483 H         1 UNK         0.0807 
    121 H121      -79.8663   20.7759  -76.2464 H         1 UNK         0.0807 
    122 H122      -80.9916   23.9760  -75.0671 H         1 UNK         0.2946 
    123 H123      -80.2940   27.4061  -75.6422 H         1 UNK         0.1144 
    124 H124      -82.7554   27.6335  -75.7571 H         1 UNK         0.0793 
    125 H125      -82.9311   25.9124  -76.1040 H         1 UNK         0.0793 
    126 H126      -82.1473   26.9742  -77.2658 H         1 UNK         0.0793 
    127 H127      -82.0375   26.2893  -73.7699 H         1 UNK         0.2896 
@<TRIPOS>BOND
     1    1    2 1    
     2    1   67 1    
     3    1   68 1    
     4    1   69 1    
     5    2    3 2    
     6    2    4 am   BACKBONE|DICT|INTERRES
     7    4    5 1    
     8    4   70 1    
     9    5    6 1    
    10    5   65 1    
    11    5   71 1    
    12    6    7 1    
    13    6   72 1    
    14    6   73 1    
    15    7    8 1    
    16    8    9 1    
    17    8   74 1    
    18    8   75 1    
    19    9   10 ar   
    20    9   14 ar   
    21   10   11 ar   
    22   10   76 1    
    23   11   12 ar   
    24   11   48 1    
    25   12   13 ar   
    26   12   77 1    
    27   13   14 ar   
    28   13   15 1    
    29   14   78 1    
    30   15   16 1    
    31   15   79 1    
    32   15   80 1    
    33   16   17 1    
    34   17   18 1    
    35   17   81 1    
    36   17   82 1    
    37   18   19 1    
    38   18   22 1    
    39   18   83 1    
    40   19   20 am   BACKBONE|DICT|INTERRES
    41   19   21 2    
    42   20   84 1    
    43   20   85 1    
    44   22   23 am   BACKBONE|DICT|INTERRES
    45   22   86 1    
    46   23   24 2    
    47   23   25 1    
    48   25   26 1    
    49   25   27 1    
    50   25   87 1    
    51   26   88 1    
    52   26   89 1    
    53   26   90 1    
    54   27   28 am   BACKBONE|DICT|INTERRES
    55   27   91 1    
    56   28   29 2    
    57   28   30 1    
    58   30   31 1    
    59   30   32 1    
    60   30   92 1    
    61   31   93 1    
    62   31   94 1    
    63   31   95 1    
    64   32   33 am   BACKBONE|DICT|INTERRES
    65   32   96 1    
    66   33   34 2    
    67   33   35 1    
    68   35   36 1    
    69   35   37 1    
    70   35   97 1    
    71   36   98 1    
    72   36   99 1    
    73   36  100 1    
    74   37   38 am   BACKBONE|DICT|INTERRES
    75   37  101 1    
    76   38   39 2    
    77   38   40 1    
    78   40   41 1    
    79   40   42 1    
    80   40  102 1    
    81   41  103 1    
    82   41  104 1    
    83   41  105 1    
    84   42   43 am   BACKBONE|DICT|INTERRES
    85   42  106 1    
    86   43   44 2    
    87   43   45 1    
    88   45   46 1    
    89   45   49 1    
    90   45  107 1    
    91   46   47 1    
    92   46  108 1    
    93   46  109 1    
    94   47   48 1    
    95   48  110 1    
    96   48  111 1    
    97   49   50 am   BACKBONE|DICT|INTERRES
    98   49  112 1    
    99   50   51 2    
   100   50   52 1    
   101   52   53 1    
   102   52   54 1    
   103   52  113 1    
   104   53  114 1    
   105   53  115 1    
   106   53  116 1    
   107   54   55 am   BACKBONE|DICT|INTERRES
   108   54  117 1    
   109   55   56 2    
   110   55   57 1    
   111   57   58 1    
   112   57   59 1    
   113   57  118 1    
   114   58  119 1    
   115   58  120 1    
   116   58  121 1    
   117   59   60 am   BACKBONE|DICT|INTERRES
   118   59  122 1    
   119   60   61 2    
   120   60   62 1    
   121   62   63 1    
   122   62   64 1    
   123   62  123 1    
   124   63  124 1    
   125   63  125 1    
   126   63  126 1    
   127   64   65 am   BACKBONE|DICT|INTERRES
   128   64  127 1    
   129   65   66 2    
@<TRIPOS>SUBSTRUCTURE
     1 UNK         1 GROUP             0       ****    0 ROOT    
