@<TRIPOS>MOLECULE
3R135
127   129    1
SMALL
USER_CHARGES


@<TRIPOS>ATOM
      1 CA        -82.5941   21.6569  -72.3168 C.3       0 UNK        -0.1998 
      2 C         -82.3704   23.1547  -72.1747 C.2       0 UNK         0.4909 
      3 O         -83.2967   23.9369  -72.3915 O.2       0 UNK        -0.5240 
      4 N         -81.1454   23.5643  -71.8199 N.am      1 UNK        -0.4739 
      5 CA        -80.7270   24.9625  -71.6799 C.3       1 UNK         0.0864 
      6 C6        -79.4963   25.0750  -70.7416 C.3       11 UNK        -0.0881 
      7 S7        -79.1486   26.7941  -70.2326 S.3       11 UNK        -0.2682 
      8 C8        -77.5723   27.1118  -71.0880 C.3       11 UNK         0.0289 
      9 C9        -77.4732   28.5606  -71.5324 C.ar      11 UNK        -0.0687 
     10 C10       -78.1228   28.9757  -72.6977 C.ar      11 UNK        -0.0823 
     11 C11       -78.0395   30.3044  -73.1235 C.ar      11 UNK        -0.0830 
     12 C12       -77.2935   31.2201  -72.3734 C.ar      11 UNK        -0.1021 
     13 C13       -76.6372   30.8153  -71.2058 C.ar      11 UNK        -0.0753 
     14 C14       -76.7357   29.4842  -70.7881 C.ar      11 UNK        -0.0933 
     15 C15       -75.8363   31.8147  -70.3817 C.3       11 UNK         0.0166 
     16 S16       -74.0645   31.3940  -70.3233 S.3       11 UNK        -0.2615 
     17 C17       -73.4814   31.9289  -71.9706 C.3       11 UNK        -0.0865 
     18 CA        -73.6700   30.8681  -73.0873 C.3       10 UNK         0.0862 
     19 C         -73.0628   31.3698  -74.4263 C.2       10 UNK         0.5551 
     20 N         -73.8910   31.8291  -75.3547 N.am      10 UNK        -0.7319 
     21 O         -71.8471   31.3787  -74.6077 O.2       10 UNK        -0.5018 
     22 N         -73.1723   29.5432  -72.6862 N.am      10 UNK        -0.4509 
     23 C         -73.3521   28.4288  -73.4009 C.2       10 UNK         0.4899 
     24 O         -73.9158   28.4055  -74.4929 O.2       10 UNK        -0.4839 
     25 CA        -72.8678   27.1180  -72.7752 C.3       9 UNK         0.0222 
     26 CB        -73.8710   26.6257  -71.7175 C.3       9 UNK        -0.1966 
     27 N         -72.7460   26.0994  -73.8183 N.am      9 UNK        -0.4218 
     28 C         -71.7381   25.2256  -73.9283 C.2       9 UNK         0.5020 
     29 O         -70.7896   25.1837  -73.1428 O.2       9 UNK        -0.5274 
     30 CA        -71.7681   24.2178  -75.0888 C.3       8 UNK         0.0270 
     31 CB        -72.3573   22.8718  -74.6299 C.3       8 UNK        -0.1976 
     32 N         -72.4973   24.6958  -76.2671 N.am      8 UNK        -0.4313 
     33 C         -72.1482   24.4251  -77.5318 C.2       8 UNK         0.5041 
     34 O         -71.1488   23.7761  -77.8459 O.2       8 UNK        -0.5577 
     35 CA        -73.0705   24.9525  -78.6433 C.3       7 UNK         0.0284 
     36 CB        -74.2493   23.9914  -78.8692 C.3       7 UNK        -0.1958 
     37 N         -73.5860   26.2936  -78.3737 N.am      7 UNK        -0.4454 
     38 C         -72.8691   27.4236  -78.4026 C.2       7 UNK         0.5089 
     39 O         -71.6732   27.4614  -78.6932 O.2       7 UNK        -0.5125 
     40 CA        -73.5877   28.7374  -78.0364 C.3       6 UNK         0.0408 
     41 CB        -73.9840   29.5327  -79.2950 C.3       6 UNK        -0.1791 
     42 N         -74.7200   28.5718  -77.1156 N.am      6 UNK        -0.4762 
     43 C         -75.9190   28.0148  -77.3267 C.2       6 UNK         0.5007 
     44 O         -76.2870   27.5590  -78.4109 O.2       6 UNK        -0.5032 
     45 CA        -76.8335   27.8734  -76.0927 C.3       5 UNK         0.0783 
     46 C46       -78.1191   28.7218  -76.2354 C.3       11 UNK        -0.0857 
     47 S47       -77.8147   30.4894  -75.8898 S.3       11 UNK        -0.2512 
     48 C48       -78.7827   30.7616  -74.3710 C.3       11 UNK         0.0225 
     49 N         -77.1338   26.4657  -75.8178 N.am      5 UNK        -0.4615 
     50 C         -76.2281   25.5127  -75.5489 C.2       4 UNK         0.5053 
     51 O         -75.0120   25.7098  -75.5224 O.2       4 UNK        -0.5105 
     52 CA        -76.7402   24.0961  -75.2444 C.3       4 UNK         0.0263 
     53 CB        -76.4985   23.7509  -73.7651 C.3       4 UNK        -0.1981 
     54 N         -78.1637   23.9354  -75.5476 N.am      4 UNK        -0.4224 
     55 C         -78.6486   23.4658  -76.7063 C.2       3 UNK         0.4895 
     56 O         -77.9396   23.0817  -77.6367 O.2       3 UNK        -0.5091 
     57 CA        -80.1810   23.4026  -76.8647 C.3       3 UNK         0.0250 
     58 CB        -80.6915   21.9860  -76.5536 C.3       3 UNK        -0.1996 
     59 N         -80.9053   24.3623  -76.0277 N.am      3 UNK        -0.4254 
     60 C         -80.8768   25.6934  -76.1819 C.2       2 UNK         0.5004 
     61 O         -80.2724   26.2656  -77.0874 O.2       2 UNK        -0.5226 
     62 CA        -81.5975   26.5305  -75.1089 C.3       2 UNK         0.0269 
     63 CB        -83.0471   26.8144  -75.5320 C.3       2 UNK        -0.1926 
     64 N         -81.5917   25.9270  -73.7695 N.am      2 UNK        -0.4687 
     65 C         -80.4978   25.5783  -73.0772 C.2       1 UNK         0.5165 
     66 O         -79.3584   25.6677  -73.5356 O.2       1 UNK        -0.5079 
     67 H67       -83.3796   21.3295  -71.6363 H         1 UNK         0.0900 
     68 H68       -82.9033   21.4188  -73.3342 H         1 UNK         0.0900 
     69 H69       -81.6926   21.0865  -72.0937 H         1 UNK         0.0900 
     70 H70       -80.4206   22.8761  -71.6720 H         1 UNK         0.2959 
     71 H71       -81.5443   25.5159  -71.2110 H         1 UNK         0.1079 
     72 H72       -79.6871   24.5126  -69.8261 H         1 UNK         0.0837 
     73 H73       -78.6129   24.6141  -71.1860 H         1 UNK         0.0837 
     74 H74       -76.7479   26.8519  -70.4226 H         1 UNK         0.0685 
     75 H75       -77.4691   26.4726  -71.9640 H         1 UNK         0.0685 
     76 H76       -78.7024   28.2596  -73.2624 H         1 UNK         0.1434 
     77 H77       -77.2277   32.2500  -72.6969 H         1 UNK         0.1329 
     78 H78       -76.2329   29.1690  -69.8840 H         1 UNK         0.1335 
     79 H79       -76.2266   31.8193  -69.3631 H         1 UNK         0.0680 
     80 H80       -75.9600   32.8306  -70.7600 H         1 UNK         0.0680 
     81 H81       -72.4244   32.1844  -71.8720 H         1 UNK         0.1032 
     82 H82       -73.9868   32.8579  -72.2412 H         1 UNK         0.1032 
     83 H83       -74.7414   30.7449  -73.2459 H         1 UNK         0.0461 
     84 H84       -74.8888   31.8242  -75.2125 H         1 UNK         0.3453 
     85 H85       -73.5107   32.1742  -76.2214 H         1 UNK         0.3453 
     86 H86       -72.7087   29.4961  -71.7912 H         1 UNK         0.2984 
     87 H87       -71.9010   27.3068  -72.3042 H         1 UNK         0.0554 
     88 H88       -74.0164   27.3678  -70.9313 H         1 UNK         0.0847 
     89 H89       -73.5240   25.7097  -71.2393 H         1 UNK         0.0847 
     90 H90       -74.8465   26.4222  -72.1609 H         1 UNK         0.0847 
     91 H91       -73.5024   26.1063  -74.4992 H         1 UNK         0.3141 
     92 H92       -70.7233   24.0530  -75.3612 H         1 UNK         0.0743 
     93 H93       -71.8489   22.5032  -73.7378 H         1 UNK         0.0784 
     94 H94       -73.4174   22.9577  -74.3922 H         1 UNK         0.0784 
     95 H95       -72.2489   22.1095  -75.4015 H         1 UNK         0.0784 
     96 H96       -73.3642   25.2038  -76.1022 H         1 UNK         0.3213 
     97 H97       -72.4860   24.9963  -79.5650 H         1 UNK         0.0855 
     98 H98       -74.8928   23.9232  -77.9916 H         1 UNK         0.0814 
     99 H99       -73.8941   22.9842  -79.0916 H         1 UNK         0.0814 
    100 H100      -74.8655   24.3097  -79.7103 H         1 UNK         0.0814 
    101 H101      -74.5731   26.3795  -78.1635 H         1 UNK         0.3105 
    102 H102      -72.8622   29.3385  -77.4858 H         1 UNK         0.0547 
    103 H103      -73.1052   29.7645  -79.8980 H         1 UNK         0.0837 
    104 H104      -74.4569   30.4791  -79.0335 H         1 UNK         0.0837 
    105 H105      -74.6721   28.9766  -79.9320 H         1 UNK         0.0837 
    106 H106      -74.4808   28.7624  -76.1420 H         1 UNK         0.3020 
    107 H107      -76.3016   28.2331  -75.2108 H         1 UNK         0.1245 
    108 H108      -78.8844   28.3585  -75.5511 H         1 UNK         0.0781 
    109 H109      -78.5563   28.6210  -77.2311 H         1 UNK         0.0781 
    110 H110      -79.7491   30.2605  -74.4451 H         1 UNK         0.0836 
    111 H111      -79.0083   31.8264  -74.2942 H         1 UNK         0.0836 
    112 H112      -78.1077   26.2023  -75.8563 H         1 UNK         0.3022 
    113 H113      -76.1513   23.4030  -75.8486 H         1 UNK         0.0747 
    114 H114      -75.4466   23.8612  -73.4999 H         1 UNK         0.0793 
    115 H115      -77.0654   24.4009  -73.1005 H         1 UNK         0.0793 
    116 H116      -76.7812   22.7209  -73.5481 H         1 UNK         0.0793 
    117 H117      -78.8054   24.2914  -74.8462 H         1 UNK         0.3047 
    118 H118      -80.4092   23.6289  -77.9086 H         1 UNK         0.0822 
    119 H119      -81.7618   21.8986  -76.7419 H         1 UNK         0.0807 
    120 H120      -80.5083   21.7088  -75.5145 H         1 UNK         0.0807 
    121 H121      -80.1933   21.2452  -77.1808 H         1 UNK         0.0807 
    122 H122      -81.4318   23.9879  -75.2521 H         1 UNK         0.2946 
    123 H123      -81.0709   27.4839  -75.0376 H         1 UNK         0.1144 
    124 H124      -83.6398   25.9000  -75.5814 H         1 UNK         0.0793 
    125 H125      -83.0826   27.2808  -76.5178 H         1 UNK         0.0793 
    126 H126      -83.5375   27.4954  -74.8362 H         1 UNK         0.0793 
    127 H127      -82.4935   25.7219  -73.3543 H         1 UNK         0.2896 
@<TRIPOS>BOND
     1    1    2 1    
     2    1   67 1    
     3    1   68 1    
     4    1   69 1    
     5    2    3 2    
     6    2    4 am   BACKBONE|DICT|INTERRES
     7    4    5 1    
     8    4   70 1    
     9    5    6 1    
    10    5   65 1    
    11    5   71 1    
    12    6    7 1    
    13    6   72 1    
    14    6   73 1    
    15    7    8 1    
    16    8    9 1    
    17    8   74 1    
    18    8   75 1    
    19    9   10 ar   
    20    9   14 ar   
    21   10   11 ar   
    22   10   76 1    
    23   11   12 ar   
    24   11   48 1    
    25   12   13 ar   
    26   12   77 1    
    27   13   14 ar   
    28   13   15 1    
    29   14   78 1    
    30   15   16 1    
    31   15   79 1    
    32   15   80 1    
    33   16   17 1    
    34   17   18 1    
    35   17   81 1    
    36   17   82 1    
    37   18   19 1    
    38   18   22 1    
    39   18   83 1    
    40   19   20 am   BACKBONE|DICT|INTERRES
    41   19   21 2    
    42   20   84 1    
    43   20   85 1    
    44   22   23 am   BACKBONE|DICT|INTERRES
    45   22   86 1    
    46   23   24 2    
    47   23   25 1    
    48   25   26 1    
    49   25   27 1    
    50   25   87 1    
    51   26   88 1    
    52   26   89 1    
    53   26   90 1    
    54   27   28 am   BACKBONE|DICT|INTERRES
    55   27   91 1    
    56   28   29 2    
    57   28   30 1    
    58   30   31 1    
    59   30   32 1    
    60   30   92 1    
    61   31   93 1    
    62   31   94 1    
    63   31   95 1    
    64   32   33 am   BACKBONE|DICT|INTERRES
    65   32   96 1    
    66   33   34 2    
    67   33   35 1    
    68   35   36 1    
    69   35   37 1    
    70   35   97 1    
    71   36   98 1    
    72   36   99 1    
    73   36  100 1    
    74   37   38 am   BACKBONE|DICT|INTERRES
    75   37  101 1    
    76   38   39 2    
    77   38   40 1    
    78   40   41 1    
    79   40   42 1    
    80   40  102 1    
    81   41  103 1    
    82   41  104 1    
    83   41  105 1    
    84   42   43 am   BACKBONE|DICT|INTERRES
    85   42  106 1    
    86   43   44 2    
    87   43   45 1    
    88   45   46 1    
    89   45   49 1    
    90   45  107 1    
    91   46   47 1    
    92   46  108 1    
    93   46  109 1    
    94   47   48 1    
    95   48  110 1    
    96   48  111 1    
    97   49   50 am   BACKBONE|DICT|INTERRES
    98   49  112 1    
    99   50   51 2    
   100   50   52 1    
   101   52   53 1    
   102   52   54 1    
   103   52  113 1    
   104   53  114 1    
   105   53  115 1    
   106   53  116 1    
   107   54   55 am   BACKBONE|DICT|INTERRES
   108   54  117 1    
   109   55   56 2    
   110   55   57 1    
   111   57   58 1    
   112   57   59 1    
   113   57  118 1    
   114   58  119 1    
   115   58  120 1    
   116   58  121 1    
   117   59   60 am   BACKBONE|DICT|INTERRES
   118   59  122 1    
   119   60   61 2    
   120   60   62 1    
   121   62   63 1    
   122   62   64 1    
   123   62  123 1    
   124   63  124 1    
   125   63  125 1    
   126   63  126 1    
   127   64   65 am   BACKBONE|DICT|INTERRES
   128   64  127 1    
   129   65   66 2    
@<TRIPOS>SUBSTRUCTURE
     1 UNK         1 GROUP             0       ****    0 ROOT    
