@<TRIPOS>MOLECULE
3R135
127   129    1
SMALL
USER_CHARGES


@<TRIPOS>ATOM
      1 CA        -84.6569   29.2825  -75.1174 C.3       0 UNK        -0.1998 
      2 C         -83.3864   28.7231  -74.4952 C.2       0 UNK         0.4909 
      3 O         -82.4210   28.4554  -75.2109 O.2       0 UNK        -0.5240 
      4 N         -83.3764   28.5531  -73.1677 N.am      1 UNK        -0.4739 
      5 CA        -82.2561   27.9938  -72.4061 C.3       1 UNK         0.0864 
      6 C6        -82.3751   28.2938  -70.8894 C.3       11 UNK        -0.0881 
      7 S7        -82.4164   30.0854  -70.5377 S.3       11 UNK        -0.2682 
      8 C8        -80.7515   30.3837  -69.8536 C.3       11 UNK         0.0289 
      9 C9        -79.6359   29.9784  -70.8098 C.ar      11 UNK        -0.0687 
     10 C10       -79.5790   30.5143  -72.1015 C.ar      11 UNK        -0.0823 
     11 C11       -78.5765   30.1293  -72.9974 C.ar      11 UNK        -0.0830 
     12 C12       -77.5959   29.2313  -72.5597 C.ar      11 UNK        -0.1021 
     13 C13       -77.6441   28.6803  -71.2797 C.ar      11 UNK        -0.0753 
     14 C14       -78.6647   29.0574  -70.4043 C.ar      11 UNK        -0.0933 
     15 C15       -76.6099   27.6418  -70.8838 C.3       11 UNK         0.0166 
     16 S16       -74.9673   28.3902  -70.6505 S.3       11 UNK        -0.2615 
     17 C17       -73.8927   26.9418  -70.9283 C.3       11 UNK        -0.0865 
     18 CA        -72.6608   27.2305  -71.8277 C.3       10 UNK         0.0862 
     19 C         -71.8127   25.9393  -71.9939 C.2       10 UNK         0.5551 
     20 N         -71.8863   25.2316  -73.1168 N.am      10 UNK        -0.7319 
     21 O         -71.0719   25.5745  -71.0846 O.2       10 UNK        -0.5018 
     22 N         -73.0024   27.8364  -73.1275 N.am      10 UNK        -0.4509 
     23 C         -72.6476   29.0724  -73.5035 C.2       10 UNK         0.4899 
     24 O         -72.1965   29.9245  -72.7353 O.2       10 UNK        -0.4839 
     25 CA        -72.7713   29.3879  -75.0106 C.3       9 UNK         0.0222 
     26 CB        -72.1360   30.7410  -75.3977 C.3       9 UNK        -0.1966 
     27 N         -72.2469   28.3055  -75.8634 N.am      9 UNK        -0.4218 
     28 C         -70.9997   27.8043  -75.8224 C.2       9 UNK         0.5020 
     29 O         -70.1240   28.2395  -75.0722 O.2       9 UNK        -0.5274 
     30 CA        -70.6443   26.6332  -76.7568 C.3       8 UNK         0.0270 
     31 CB        -69.5532   25.7240  -76.1414 C.3       8 UNK        -0.1976 
     32 N         -71.7993   25.8242  -77.1684 N.am      8 UNK        -0.4313 
     33 C         -71.7767   25.0139  -78.2390 C.2       8 UNK         0.5041 
     34 O         -70.8362   24.9532  -79.0333 O.2       8 UNK        -0.5577 
     35 CA        -72.9894   24.0958  -78.4615 C.3       7 UNK         0.0284 
     36 CB        -73.0700   23.0202  -77.3664 C.3       7 UNK        -0.1958 
     37 N         -74.2513   24.8282  -78.5459 N.am      7 UNK        -0.4454 
     38 C         -74.5629   25.6986  -79.5173 C.2       7 UNK         0.5089 
     39 O         -73.8334   25.9585  -80.4746 O.2       7 UNK        -0.5125 
     40 CA        -75.9217   26.4078  -79.4000 C.3       6 UNK         0.0408 
     41 CB        -77.0207   25.5927  -80.1002 C.3       6 UNK        -0.1791 
     42 N         -76.3142   26.6653  -78.0138 N.am      6 UNK        -0.4762 
     43 C         -75.6757   27.4986  -77.1799 C.2       6 UNK         0.5007 
     44 O         -74.6644   28.1339  -77.4786 O.2       6 UNK        -0.5032 
     45 CA        -76.2440   27.5839  -75.7523 C.3       5 UNK         0.0783 
     46 C46       -77.5853   28.3672  -75.7316 C.3       11 UNK        -0.0857 
     47 S47       -77.2908   30.1631  -75.5611 S.3       11 UNK        -0.2512 
     48 C48       -78.6269   30.6851  -74.4242 C.3       11 UNK         0.0225 
     49 N         -76.3380   26.2522  -75.1503 N.am      5 UNK        -0.4615 
     50 C         -75.2813   25.4686  -74.8704 C.2       4 UNK         0.5053 
     51 O         -74.1075   25.8438  -74.9631 O.2       4 UNK        -0.5105 
     52 CA        -75.5624   24.0136  -74.4412 C.3       4 UNK         0.0263 
     53 CB        -75.4719   23.8695  -72.9156 C.3       4 UNK        -0.1981 
     54 N         -76.8573   23.5025  -74.8919 N.am      4 UNK        -0.4224 
     55 C         -77.2575   23.4027  -76.1678 C.2       3 UNK         0.4895 
     56 O         -76.5235   23.6239  -77.1309 O.2       3 UNK        -0.5091 
     57 CA        -78.7424   23.0680  -76.4105 C.3       3 UNK         0.0250 
     58 CB        -78.8978   21.5918  -76.8080 C.3       3 UNK        -0.1996 
     59 N         -79.6324   23.3637  -75.2759 N.am      3 UNK        -0.4254 
     60 C         -79.7911   24.5661  -74.7020 C.2       2 UNK         0.5004 
     61 O         -79.1811   25.5795  -75.0545 O.2       2 UNK        -0.5226 
     62 CA        -80.7271   24.6260  -73.4899 C.3       2 UNK         0.0269 
     63 CB        -80.0835   23.9519  -72.2632 C.3       2 UNK        -0.1926 
     64 N         -81.0117   26.0230  -73.1736 N.am      2 UNK        -0.4687 
     65 C         -82.1567   26.4773  -72.6560 C.2       1 UNK         0.5165 
     66 O         -83.1126   25.7527  -72.3672 O.2       1 UNK        -0.5079 
     67 H67       -85.4227   29.4846  -74.3687 H         1 UNK         0.0900 
     68 H68       -84.4398   30.2137  -75.6400 H         1 UNK         0.0900 
     69 H69       -85.0650   28.5741  -75.8377 H         1 UNK         0.0900 
     70 H70       -84.1981   28.7817  -72.6270 H         1 UNK         0.2959 
     71 H71       -81.3386   28.4590  -72.7714 H         1 UNK         0.1079 
     72 H72       -83.2848   27.8494  -70.4807 H         1 UNK         0.0837 
     73 H73       -81.5478   27.8386  -70.3414 H         1 UNK         0.0837 
     74 H74       -80.6505   31.4450  -69.6233 H         1 UNK         0.0685 
     75 H75       -80.6634   29.8533  -68.9041 H         1 UNK         0.0685 
     76 H76       -80.3410   31.2135  -72.4189 H         1 UNK         0.1434 
     77 H77       -76.7894   28.9277  -73.2083 H         1 UNK         0.1329 
     78 H78       -78.7061   28.6286  -69.4124 H         1 UNK         0.1335 
     79 H79       -76.9025   27.1216  -69.9704 H         1 UNK         0.0680 
     80 H80       -76.5730   26.8892  -71.6725 H         1 UNK         0.0680 
     81 H81       -73.5660   26.5842  -69.9498 H         1 UNK         0.1032 
     82 H82       -74.4796   26.1307  -71.3563 H         1 UNK         0.1032 
     83 H83       -72.0213   27.9197  -71.2731 H         1 UNK         0.0461 
     84 H84       -72.5362   25.4738  -73.8520 H         1 UNK         0.3453 
     85 H85       -71.3236   24.4003  -73.1987 H         1 UNK         0.3453 
     86 H86       -73.3586   27.1995  -73.8314 H         1 UNK         0.2984 
     87 H87       -73.8340   29.4786  -75.2224 H         1 UNK         0.0554 
     88 H88       -72.2639   30.9486  -76.4600 H         1 UNK         0.0847 
     89 H89       -71.0687   30.7688  -75.1761 H         1 UNK         0.0847 
     90 H90       -72.6021   31.5614  -74.8506 H         1 UNK         0.0847 
     91 H91       -72.9069   27.9485  -76.5480 H         1 UNK         0.3141 
     92 H92       -70.2264   27.1018  -77.6503 H         1 UNK         0.0743 
     93 H93       -69.9051   25.2413  -75.2296 H         1 UNK         0.0784 
     94 H94       -69.2365   24.9421  -76.8311 H         1 UNK         0.0784 
     95 H95       -68.6578   26.2919  -75.8858 H         1 UNK         0.0784 
     96 H96       -72.6059   25.8174  -76.5534 H         1 UNK         0.3213 
     97 H97       -72.8492   23.5856  -79.4171 H         1 UNK         0.0855 
     98 H98       -73.1130   23.4584  -76.3706 H         1 UNK         0.0814 
     99 H99       -72.1899   22.3765  -77.3942 H         1 UNK         0.0814 
    100 H100      -73.9437   22.3806  -77.4946 H         1 UNK         0.0814 
    101 H101      -74.9661   24.6071  -77.8588 H         1 UNK         0.3105 
    102 H102      -75.8369   27.3716  -79.9066 H         1 UNK         0.0547 
    103 H103      -77.9751   26.1190  -80.0885 H         1 UNK         0.0837 
    104 H104      -76.7648   25.4123  -81.1452 H         1 UNK         0.0837 
    105 H105      -77.1666   24.6199  -79.6291 H         1 UNK         0.0837 
    106 H106      -77.0989   26.1367  -77.6598 H         1 UNK         0.3020 
    107 H107      -75.5240   28.1230  -75.1394 H         1 UNK         0.1245 
    108 H108      -78.2052   28.0334  -74.9001 H         1 UNK         0.0781 
    109 H109      -78.1925   28.1842  -76.6204 H         1 UNK         0.0781 
    110 H110      -79.5835   30.4126  -74.8735 H         1 UNK         0.0836 
    111 H111      -78.6124   31.7747  -74.3710 H         1 UNK         0.0836 
    112 H112      -77.2777   25.8775  -75.0478 H         1 UNK         0.3022 
    113 H113      -74.7942   23.3807  -74.8846 H         1 UNK         0.0747 
    114 H114      -75.6540   22.8411  -72.6028 H         1 UNK         0.0793 
    115 H115      -74.4765   24.1340  -72.5598 H         1 UNK         0.0793 
    116 H116      -76.1924   24.5080  -72.4032 H         1 UNK         0.0793 
    117 H117      -77.5326   23.2902  -74.1731 H         1 UNK         0.3047 
    118 H118      -79.0709   23.6848  -77.2496 H         1 UNK         0.0822 
    119 H119      -78.6129   20.9221  -75.9956 H         1 UNK         0.0807 
    120 H120      -78.2679   21.3498  -77.6656 H         1 UNK         0.0807 
    121 H121      -79.9254   21.3617  -77.0903 H         1 UNK         0.0807 
    122 H122      -80.1619   22.5833  -74.9130 H         1 UNK         0.2946 
    123 H123      -81.6533   24.1099  -73.7546 H         1 UNK         0.1144 
    124 H124      -79.8685   22.8996  -72.4526 H         1 UNK         0.0793 
    125 H125      -79.1457   24.4346  -71.9844 H         1 UNK         0.0793 
    126 H126      -80.7463   23.9908  -71.3985 H         1 UNK         0.0793 
    127 H127      -80.2984   26.6729  -73.4810 H         1 UNK         0.2896 
@<TRIPOS>BOND
     1    1    2 1    
     2    1   67 1    
     3    1   68 1    
     4    1   69 1    
     5    2    3 2    
     6    2    4 am   BACKBONE|DICT|INTERRES
     7    4    5 1    
     8    4   70 1    
     9    5    6 1    
    10    5   65 1    
    11    5   71 1    
    12    6    7 1    
    13    6   72 1    
    14    6   73 1    
    15    7    8 1    
    16    8    9 1    
    17    8   74 1    
    18    8   75 1    
    19    9   10 ar   
    20    9   14 ar   
    21   10   11 ar   
    22   10   76 1    
    23   11   12 ar   
    24   11   48 1    
    25   12   13 ar   
    26   12   77 1    
    27   13   14 ar   
    28   13   15 1    
    29   14   78 1    
    30   15   16 1    
    31   15   79 1    
    32   15   80 1    
    33   16   17 1    
    34   17   18 1    
    35   17   81 1    
    36   17   82 1    
    37   18   19 1    
    38   18   22 1    
    39   18   83 1    
    40   19   20 am   BACKBONE|DICT|INTERRES
    41   19   21 2    
    42   20   84 1    
    43   20   85 1    
    44   22   23 am   BACKBONE|DICT|INTERRES
    45   22   86 1    
    46   23   24 2    
    47   23   25 1    
    48   25   26 1    
    49   25   27 1    
    50   25   87 1    
    51   26   88 1    
    52   26   89 1    
    53   26   90 1    
    54   27   28 am   BACKBONE|DICT|INTERRES
    55   27   91 1    
    56   28   29 2    
    57   28   30 1    
    58   30   31 1    
    59   30   32 1    
    60   30   92 1    
    61   31   93 1    
    62   31   94 1    
    63   31   95 1    
    64   32   33 am   BACKBONE|DICT|INTERRES
    65   32   96 1    
    66   33   34 2    
    67   33   35 1    
    68   35   36 1    
    69   35   37 1    
    70   35   97 1    
    71   36   98 1    
    72   36   99 1    
    73   36  100 1    
    74   37   38 am   BACKBONE|DICT|INTERRES
    75   37  101 1    
    76   38   39 2    
    77   38   40 1    
    78   40   41 1    
    79   40   42 1    
    80   40  102 1    
    81   41  103 1    
    82   41  104 1    
    83   41  105 1    
    84   42   43 am   BACKBONE|DICT|INTERRES
    85   42  106 1    
    86   43   44 2    
    87   43   45 1    
    88   45   46 1    
    89   45   49 1    
    90   45  107 1    
    91   46   47 1    
    92   46  108 1    
    93   46  109 1    
    94   47   48 1    
    95   48  110 1    
    96   48  111 1    
    97   49   50 am   BACKBONE|DICT|INTERRES
    98   49  112 1    
    99   50   51 2    
   100   50   52 1    
   101   52   53 1    
   102   52   54 1    
   103   52  113 1    
   104   53  114 1    
   105   53  115 1    
   106   53  116 1    
   107   54   55 am   BACKBONE|DICT|INTERRES
   108   54  117 1    
   109   55   56 2    
   110   55   57 1    
   111   57   58 1    
   112   57   59 1    
   113   57  118 1    
   114   58  119 1    
   115   58  120 1    
   116   58  121 1    
   117   59   60 am   BACKBONE|DICT|INTERRES
   118   59  122 1    
   119   60   61 2    
   120   60   62 1    
   121   62   63 1    
   122   62   64 1    
   123   62  123 1    
   124   63  124 1    
   125   63  125 1    
   126   63  126 1    
   127   64   65 am   BACKBONE|DICT|INTERRES
   128   64  127 1    
   129   65   66 2    
@<TRIPOS>SUBSTRUCTURE
     1 UNK         1 GROUP             0       ****    0 ROOT    
