@<TRIPOS>MOLECULE
3R135
127   129    1
SMALL
USER_CHARGES


@<TRIPOS>ATOM
      1 CA        -77.6114   26.4345  -69.0963 C.3       0 UNK        -0.1998 
      2 C         -78.9043   25.8768  -69.6704 C.2       0 UNK         0.4909 
      3 O         -79.5252   25.0107  -69.0532 O.2       0 UNK        -0.5240 
      4 N         -79.3143   26.3626  -70.8459 N.am      1 UNK        -0.4739 
      5 CA        -80.4950   25.9090  -71.5798 C.3       1 UNK         0.0864 
      6 C6        -81.8182   26.5179  -71.0226 C.3       11 UNK        -0.0881 
      7 S7        -82.3999   28.1061  -71.7194 S.3       11 UNK        -0.2682 
      8 C8        -81.3613   29.3349  -70.8625 C.3       11 UNK         0.0289 
      9 C9        -80.1282   29.7225  -71.6715 C.ar      11 UNK        -0.0687 
     10 C10       -80.2612   30.1703  -72.9910 C.ar      11 UNK        -0.0823 
     11 C11       -79.1409   30.5496  -73.7365 C.ar      11 UNK        -0.0830 
     12 C12       -77.8775   30.4970  -73.1406 C.ar      11 UNK        -0.1021 
     13 C13       -77.7289   30.0498  -71.8262 C.ar      11 UNK        -0.0753 
     14 C14       -78.8567   29.6703  -71.0925 C.ar      11 UNK        -0.0933 
     15 C15       -76.3434   29.9848  -71.2106 C.3       11 UNK         0.0166 
     16 S16       -75.5690   28.3716  -71.5282 S.3       11 UNK        -0.2615 
     17 C17       -73.8382   28.7386  -71.0750 C.3       11 UNK        -0.0865 
     18 CA        -72.7825   28.1448  -72.0534 C.3       10 UNK         0.0862 
     19 C         -72.4833   26.6369  -71.8322 C.2       10 UNK         0.5551 
     20 N         -72.1517   26.2353  -70.6124 N.am      10 UNK        -0.7319 
     21 O         -72.5222   25.8260  -72.7553 O.2       10 UNK        -0.5018 
     22 N         -73.0674   28.4263  -73.4645 N.am      10 UNK        -0.4509 
     23 C         -72.9529   29.6122  -74.0710 C.2       10 UNK         0.4899 
     24 O         -72.6845   30.6595  -73.4799 O.2       10 UNK        -0.4839 
     25 CA        -73.1473   29.6164  -75.6038 C.3       9 UNK         0.0222 
     26 CB        -72.5651   30.8746  -76.2832 C.3       9 UNK        -0.1966 
     27 N         -72.6492   28.3879  -76.2450 N.am      9 UNK        -0.4218 
     28 C         -71.3870   27.9308  -76.1947 C.2       9 UNK         0.5020 
     29 O         -70.4597   28.5606  -75.6822 O.2       9 UNK        -0.5274 
     30 CA        -71.0816   26.5469  -76.7880 C.3       8 UNK         0.0270 
     31 CB        -70.1850   25.7160  -75.8444 C.3       8 UNK        -0.1976 
     32 N         -72.2704   25.7604  -77.1398 N.am      8 UNK        -0.4313 
     33 C         -72.2582   24.8372  -78.1124 C.2       8 UNK         0.5041 
     34 O         -71.3142   24.6682  -78.8872 O.2       8 UNK        -0.5577 
     35 CA        -73.4762   23.9104  -78.2240 C.3       7 UNK         0.0284 
     36 CB        -73.5159   22.9277  -77.0418 C.3       7 UNK        -0.1958 
     37 N         -74.7475   24.6246  -78.3346 N.am      7 UNK        -0.4454 
     38 C         -75.1123   25.3647  -79.3911 C.2       7 UNK         0.5089 
     39 O         -74.4027   25.5491  -80.3807 O.2       7 UNK        -0.5125 
     40 CA        -76.5144   25.9966  -79.3519 C.3       6 UNK         0.0408 
     41 CB        -77.5746   24.9856  -79.8162 C.3       6 UNK        -0.1791 
     42 N         -76.8856   26.5154  -78.0358 N.am      6 UNK        -0.4762 
     43 C         -76.2731   27.5318  -77.4109 C.2       6 UNK         0.5007 
     44 O         -75.3081   28.1452  -77.8684 O.2       6 UNK        -0.5032 
     45 CA        -76.8053   27.8786  -76.0074 C.3       5 UNK         0.0783 
     46 C46       -78.1981   28.5572  -76.0865 C.3       11 UNK        -0.0857 
     47 S47       -78.0553   30.3588  -76.3339 S.3       11 UNK        -0.2512 
     48 C48       -79.3151   31.0114  -75.1816 C.3       11 UNK         0.0225 
     49 N         -76.7994   26.7079  -75.1292 N.am      5 UNK        -0.4615 
     50 C         -75.7341   25.9416  -74.8487 C.2       4 UNK         0.5053 
     51 O         -74.5869   26.1776  -75.2384 O.2       4 UNK        -0.5105 
     52 CA        -76.0195   24.6547  -74.0551 C.3       4 UNK         0.0263 
     53 CB        -76.0735   24.9297  -72.5450 C.3       4 UNK        -0.1981 
     54 N         -77.2694   24.0140  -74.4753 N.am      4 UNK        -0.4224 
     55 C         -77.4748   23.4584  -75.6785 C.2       3 UNK         0.4895 
     56 O         -76.6176   23.3855  -76.5558 O.2       3 UNK        -0.5091 
     57 CA        -78.8907   22.9375  -75.9701 C.3       3 UNK         0.0250 
     58 CB        -79.1164   21.5664  -75.3132 C.3       3 UNK        -0.1996 
     59 N         -79.9289   23.8738  -75.5357 N.am      3 UNK        -0.4254 
     60 C         -80.1169   25.0925  -76.0625 C.2       2 UNK         0.5004 
     61 O         -79.4700   25.5384  -77.0105 O.2       2 UNK        -0.5226 
     62 CA        -81.1759   25.9792  -75.3853 C.3       2 UNK         0.0269 
     63 CB        -82.5631   25.7294  -75.9969 C.3       2 UNK        -0.1926 
     64 N         -81.2434   25.8109  -73.9275 N.am      2 UNK        -0.4687 
     65 C         -80.2360   26.0921  -73.0883 C.2       1 UNK         0.5165 
     66 O         -79.1214   26.4533  -73.4744 O.2       1 UNK        -0.5079 
     67 H67       -77.6550   26.4537  -68.0077 H         1 UNK         0.0900 
     68 H68       -77.4275   27.4509  -69.4391 H         1 UNK         0.0900 
     69 H69       -76.7674   25.8132  -69.3945 H         1 UNK         0.0900 
     70 H70       -78.7498   27.0290  -71.3604 H         1 UNK         0.2959 
     71 H71       -80.5532   24.8267  -71.4423 H         1 UNK         0.1079 
     72 H72       -82.6233   25.8033  -71.2004 H         1 UNK         0.0837 
     73 H73       -81.7717   26.6069  -69.9361 H         1 UNK         0.0837 
     74 H74       -81.0855   28.9595  -69.8758 H         1 UNK         0.0685 
     75 H75       -81.9562   30.2332  -70.6934 H         1 UNK         0.0685 
     76 H76       -81.2447   30.2171  -73.4383 H         1 UNK         0.1434 
     77 H77       -77.0029   30.7901  -73.7048 H         1 UNK         0.1329 
     78 H78       -78.7442   29.3393  -70.0697 H         1 UNK         0.1335 
     79 H79       -75.7241   30.7809  -71.6272 H         1 UNK         0.0680 
     80 H80       -76.3933   30.1587  -70.1346 H         1 UNK         0.0680 
     81 H81       -73.7014   29.8199  -71.0419 H         1 UNK         0.1032 
     82 H82       -73.6697   28.4063  -70.0500 H         1 UNK         0.1032 
     83 H83       -71.8310   28.6350  -71.8383 H         1 UNK         0.0461 
     84 H84       -71.9468   25.2599  -70.4629 H         1 UNK         0.3453 
     85 H85       -72.0855   26.8827  -69.8434 H         1 UNK         0.3453 
     86 H86       -73.2860   27.6019  -74.0142 H         1 UNK         0.2984 
     87 H87       -74.2210   29.6414  -75.7726 H         1 UNK         0.0554 
     88 H88       -73.0429   31.7787  -75.9040 H         1 UNK         0.0847 
     89 H89       -72.7264   30.8530  -77.3609 H         1 UNK         0.0847 
     90 H90       -71.4943   30.9764  -76.1049 H         1 UNK         0.0847 
     91 H91       -73.3536   27.8338  -76.7171 H         1 UNK         0.3141 
     92 H92       -70.5137   26.7557  -77.6972 H         1 UNK         0.0743 
     93 H93       -69.2651   26.2468  -75.5957 H         1 UNK         0.0784 
     94 H94       -70.6963   25.4901  -74.9077 H         1 UNK         0.0784 
     95 H95       -69.8901   24.7710  -76.3006 H         1 UNK         0.0784 
     96 H96       -73.0752   25.8244  -76.5200 H         1 UNK         0.3213 
     97 H97       -73.3534   23.3215  -79.1357 H         1 UNK         0.0855 
     98 H98       -73.7131   23.4365  -76.0981 H         1 UNK         0.0814 
     99 H99       -72.5656   22.4023  -76.9370 H         1 UNK         0.0814 
    100 H100      -74.2873   22.1705  -77.1824 H         1 UNK         0.0814 
    101 H101      -75.4287   24.4579  -77.5977 H         1 UNK         0.3105 
    102 H102      -76.5185   26.8366  -80.0496 H         1 UNK         0.0547 
    103 H103      -77.3369   24.5958  -80.8069 H         1 UNK         0.0837 
    104 H104      -77.6446   24.1348  -79.1372 H         1 UNK         0.0837 
    105 H105      -78.5613   25.4452  -79.8760 H         1 UNK         0.0837 
    106 H106      -77.6853   26.0780  -77.5832 H         1 UNK         0.3020 
    107 H107      -76.1110   28.5779  -75.5446 H         1 UNK         0.1245 
    108 H108      -78.7487   28.3767  -75.1648 H         1 UNK         0.0781 
    109 H109      -78.8233   28.1401  -76.8777 H         1 UNK         0.0781 
    110 H110      -79.2819   32.1012  -75.2063 H         1 UNK         0.0836 
    111 H111      -80.2985   30.7244  -75.5574 H         1 UNK         0.0836 
    112 H112      -77.6867   26.4724  -74.6922 H         1 UNK         0.3022 
    113 H113      -75.2010   23.9577  -74.2442 H         1 UNK         0.0747 
    114 H114      -75.1339   25.3543  -72.1941 H         1 UNK         0.0793 
    115 H115      -76.2447   24.0149  -71.9778 H         1 UNK         0.0793 
    116 H116      -76.8615   25.6375  -72.2894 H         1 UNK         0.0793 
    117 H117      -78.0457   24.0735  -73.8339 H         1 UNK         0.3047 
    118 H118      -78.9808   22.8162  -77.0520 H         1 UNK         0.0822 
    119 H119      -78.3580   20.8515  -75.6361 H         1 UNK         0.0807 
    120 H120      -80.0867   21.1512  -75.5865 H         1 UNK         0.0807 
    121 H121      -79.0692   21.6221  -74.2250 H         1 UNK         0.0807 
    122 H122      -80.5152   23.5903  -74.7643 H         1 UNK         0.2946 
    123 H123      -80.8993   27.0171  -75.5833 H         1 UNK         0.1144 
    124 H124      -83.3030   26.4232  -75.5971 H         1 UNK         0.0793 
    125 H125      -82.9144   24.7148  -75.8052 H         1 UNK         0.0793 
    126 H126      -82.5428   25.8689  -77.0789 H         1 UNK         0.0793 
    127 H127      -82.1350   25.5321  -73.5437 H         1 UNK         0.2896 
@<TRIPOS>BOND
     1    1    2 1    
     2    1   67 1    
     3    1   68 1    
     4    1   69 1    
     5    2    3 2    
     6    2    4 am   BACKBONE|DICT|INTERRES
     7    4    5 1    
     8    4   70 1    
     9    5    6 1    
    10    5   65 1    
    11    5   71 1    
    12    6    7 1    
    13    6   72 1    
    14    6   73 1    
    15    7    8 1    
    16    8    9 1    
    17    8   74 1    
    18    8   75 1    
    19    9   10 ar   
    20    9   14 ar   
    21   10   11 ar   
    22   10   76 1    
    23   11   12 ar   
    24   11   48 1    
    25   12   13 ar   
    26   12   77 1    
    27   13   14 ar   
    28   13   15 1    
    29   14   78 1    
    30   15   16 1    
    31   15   79 1    
    32   15   80 1    
    33   16   17 1    
    34   17   18 1    
    35   17   81 1    
    36   17   82 1    
    37   18   19 1    
    38   18   22 1    
    39   18   83 1    
    40   19   20 am   BACKBONE|DICT|INTERRES
    41   19   21 2    
    42   20   84 1    
    43   20   85 1    
    44   22   23 am   BACKBONE|DICT|INTERRES
    45   22   86 1    
    46   23   24 2    
    47   23   25 1    
    48   25   26 1    
    49   25   27 1    
    50   25   87 1    
    51   26   88 1    
    52   26   89 1    
    53   26   90 1    
    54   27   28 am   BACKBONE|DICT|INTERRES
    55   27   91 1    
    56   28   29 2    
    57   28   30 1    
    58   30   31 1    
    59   30   32 1    
    60   30   92 1    
    61   31   93 1    
    62   31   94 1    
    63   31   95 1    
    64   32   33 am   BACKBONE|DICT|INTERRES
    65   32   96 1    
    66   33   34 2    
    67   33   35 1    
    68   35   36 1    
    69   35   37 1    
    70   35   97 1    
    71   36   98 1    
    72   36   99 1    
    73   36  100 1    
    74   37   38 am   BACKBONE|DICT|INTERRES
    75   37  101 1    
    76   38   39 2    
    77   38   40 1    
    78   40   41 1    
    79   40   42 1    
    80   40  102 1    
    81   41  103 1    
    82   41  104 1    
    83   41  105 1    
    84   42   43 am   BACKBONE|DICT|INTERRES
    85   42  106 1    
    86   43   44 2    
    87   43   45 1    
    88   45   46 1    
    89   45   49 1    
    90   45  107 1    
    91   46   47 1    
    92   46  108 1    
    93   46  109 1    
    94   47   48 1    
    95   48  110 1    
    96   48  111 1    
    97   49   50 am   BACKBONE|DICT|INTERRES
    98   49  112 1    
    99   50   51 2    
   100   50   52 1    
   101   52   53 1    
   102   52   54 1    
   103   52  113 1    
   104   53  114 1    
   105   53  115 1    
   106   53  116 1    
   107   54   55 am   BACKBONE|DICT|INTERRES
   108   54  117 1    
   109   55   56 2    
   110   55   57 1    
   111   57   58 1    
   112   57   59 1    
   113   57  118 1    
   114   58  119 1    
   115   58  120 1    
   116   58  121 1    
   117   59   60 am   BACKBONE|DICT|INTERRES
   118   59  122 1    
   119   60   61 2    
   120   60   62 1    
   121   62   63 1    
   122   62   64 1    
   123   62  123 1    
   124   63  124 1    
   125   63  125 1    
   126   63  126 1    
   127   64   65 am   BACKBONE|DICT|INTERRES
   128   64  127 1    
   129   65   66 2    
@<TRIPOS>SUBSTRUCTURE
     1 UNK         1 GROUP             0       ****    0 ROOT    
