@<TRIPOS>MOLECULE
3R135
127   129    1
SMALL
USER_CHARGES


@<TRIPOS>ATOM
      1 CA        -77.2959   30.8566  -76.2621 C.3       0 UNK        -0.1998 
      2 C         -77.8470   30.0688  -75.0839 C.2       0 UNK         0.4909 
      3 O         -77.2263   30.0433  -74.0219 O.2       0 UNK        -0.5240 
      4 N         -79.0106   29.4398  -75.2814 N.am      1 UNK        -0.4739 
      5 CA        -79.6878   28.5415  -74.3447 C.3       1 UNK         0.0864 
      6 C6        -80.8043   29.2561  -73.5252 C.3       11 UNK        -0.0881 
      7 S7        -80.2775   30.7471  -72.6043 S.3       11 UNK        -0.2682 
      8 C8        -80.3552   30.2101  -70.8676 C.3       11 UNK         0.0289 
      9 C9        -79.1934   29.2976  -70.5100 C.ar      11 UNK        -0.0687 
     10 C10       -79.3416   27.9116  -70.5991 C.ar      11 UNK        -0.0823 
     11 C11       -78.2724   27.0659  -70.2979 C.ar      11 UNK        -0.0830 
     12 C12       -77.0606   27.6103  -69.8686 C.ar      11 UNK        -0.1021 
     13 C13       -76.9005   28.9947  -69.7714 C.ar      11 UNK        -0.0753 
     14 C14       -77.9698   29.8363  -70.0953 C.ar      11 UNK        -0.0933 
     15 C15       -75.5653   29.5626  -69.3179 C.3       11 UNK         0.0166 
     16 S16       -74.3145   29.4495  -70.6348 S.3       11 UNK        -0.2615 
     17 C17       -74.5871   31.0230  -71.5226 C.3       11 UNK        -0.0865 
     18 CA        -73.5820   31.2921  -72.6769 C.3       10 UNK         0.0862 
     19 C         -72.1053   31.3636  -72.1819 C.2       10 UNK         0.5551 
     20 N         -71.7163   32.4776  -71.5748 N.am      10 UNK        -0.7319 
     21 O         -71.3234   30.4230  -72.3098 O.2       10 UNK        -0.5018 
     22 N         -73.8241   30.3902  -73.8135 N.am      10 UNK        -0.4509 
     23 C         -73.2059   30.4383  -74.9998 C.2       10 UNK         0.4899 
     24 O         -72.2995   31.2248  -75.2824 O.2       10 UNK        -0.4839 
     25 CA        -73.7343   29.4817  -76.0821 C.3       9 UNK         0.0222 
     26 CB        -73.8181   30.1861  -77.4491 C.3       9 UNK        -0.1966 
     27 N         -72.9416   28.2604  -76.2311 N.am      9 UNK        -0.4218 
     28 C         -72.7237   27.3213  -75.3005 C.2       9 UNK         0.5020 
     29 O         -73.1108   27.3896  -74.1338 O.2       9 UNK        -0.5274 
     30 CA        -72.0014   26.0536  -75.7939 C.3       8 UNK         0.0270 
     31 CB        -71.6237   25.0959  -74.6479 C.3       8 UNK        -0.1976 
     32 N         -72.8481   25.3423  -76.7552 N.am      8 UNK        -0.4313 
     33 C         -72.9344   25.6385  -78.0592 C.2       8 UNK         0.5041 
     34 O         -72.2338   26.4905  -78.6085 O.2       8 UNK        -0.5577 
     35 CA        -74.0281   24.9190  -78.8655 C.3       7 UNK         0.0284 
     36 CB        -73.7497   23.4115  -78.9886 C.3       7 UNK        -0.1958 
     37 N         -75.3511   25.1391  -78.2788 N.am      7 UNK        -0.4454 
     38 C         -75.9908   26.3195  -78.2626 C.2       7 UNK         0.5089 
     39 O         -75.5930   27.3265  -78.8463 O.2       7 UNK        -0.5125 
     40 CA        -77.2848   26.3933  -77.4378 C.3       6 UNK         0.0408 
     41 CB        -78.4834   25.9216  -78.2757 C.3       6 UNK        -0.1791 
     42 N         -77.1499   25.6138  -76.2003 N.am      6 UNK        -0.4762 
     43 C         -76.5070   26.0820  -75.1167 C.2       6 UNK         0.5007 
     44 O         -76.1985   27.2618  -74.9932 O.2       6 UNK        -0.5032 
     45 CA        -76.0672   25.0931  -74.0169 C.3       5 UNK         0.0783 
     46 C46       -76.5502   25.4800  -72.5947 C.3       11 UNK        -0.0857 
     47 S47       -78.3033   25.1305  -72.2423 S.3       11 UNK        -0.2512 
     48 C48       -78.4165   25.5666  -70.4822 C.3       11 UNK         0.0225 
     49 N         -76.3415   23.6970  -74.3700 N.am      5 UNK        -0.4615 
     50 C         -75.4944   22.9339  -75.0737 C.2       4 UNK         0.5053 
     51 O         -74.3996   23.3264  -75.4756 O.2       4 UNK        -0.5105 
     52 CA        -75.9607   21.5169  -75.4473 C.3       4 UNK         0.0263 
     53 CB        -75.7227   20.5450  -74.2813 C.3       4 UNK        -0.1981 
     54 N         -77.3642   21.4550  -75.8618 N.am      4 UNK        -0.4224 
     55 C         -77.8942   22.1394  -76.8850 C.2       3 UNK         0.4895 
     56 O         -77.2390   22.8940  -77.6051 O.2       3 UNK        -0.5091 
     57 CA        -79.4120   22.0006  -77.1257 C.3       3 UNK         0.0250 
     58 CB        -80.0432   20.7707  -76.4336 C.3       3 UNK        -0.1996 
     59 N         -80.1545   23.2181  -76.7641 N.am      3 UNK        -0.4254 
     60 C         -80.1093   23.8646  -75.5888 C.2       2 UNK         0.5004 
     61 O         -79.3963   23.5170  -74.6489 O.2       2 UNK        -0.5226 
     62 CA        -81.0428   25.0710  -75.4182 C.3       2 UNK         0.0269 
     63 CB        -82.2710   24.6734  -74.5828 C.3       2 UNK        -0.1926 
     64 N         -80.3542   26.1809  -74.7458 N.am      2 UNK        -0.4687 
     65 C         -80.3235   27.4368  -75.2142 C.2       1 UNK         0.5165 
     66 O         -80.8252   27.7634  -76.2947 O.2       1 UNK        -0.5079 
     67 H67       -76.5781   31.6032  -75.9225 H         1 UNK         0.0900 
     68 H68       -76.7916   30.1854  -76.9566 H         1 UNK         0.0900 
     69 H69       -78.0923   31.3734  -76.7972 H         1 UNK         0.0900 
     70 H70       -79.4575   29.4719  -76.1892 H         1 UNK         0.2959 
     71 H71       -78.9542   28.0925  -73.6700 H         1 UNK         0.1079 
     72 H72       -81.6065   29.5803  -74.1917 H         1 UNK         0.0837 
     73 H73       -81.2702   28.5526  -72.8341 H         1 UNK         0.0837 
     74 H74       -81.3098   29.7187  -70.6732 H         1 UNK         0.0685 
     75 H75       -80.3345   31.0937  -70.2279 H         1 UNK         0.0685 
     76 H76       -80.2800   27.4880  -70.9286 H         1 UNK         0.1434 
     77 H77       -76.2281   26.9594  -69.6382 H         1 UNK         0.1329 
     78 H78       -77.8497   30.9092  -70.0331 H         1 UNK         0.1335 
     79 H79       -75.6701   30.5960  -68.9838 H         1 UNK         0.0680 
     80 H80       -75.2130   28.9986  -68.4530 H         1 UNK         0.0680 
     81 H81       -74.5434   31.8392  -70.7995 H         1 UNK         0.1032 
     82 H82       -75.6079   31.0284  -71.9101 H         1 UNK         0.1032 
     83 H83       -73.8152   32.2857  -73.0648 H         1 UNK         0.0461 
     84 H84       -72.3453   33.2563  -71.4561 H         1 UNK         0.3453 
     85 H85       -70.7697   32.5435  -71.2343 H         1 UNK         0.3453 
     86 H86       -74.5209   29.6717  -73.6647 H         1 UNK         0.2984 
     87 H87       -74.7464   29.1872  -75.8053 H         1 UNK         0.0554 
     88 H88       -74.3775   31.1195  -77.3761 H         1 UNK         0.0847 
     89 H89       -74.3237   29.5646  -78.1874 H         1 UNK         0.0847 
     90 H90       -72.8296   30.4310  -77.8398 H         1 UNK         0.0847 
     91 H91       -72.6001   28.0601  -77.1645 H         1 UNK         0.3141 
     92 H92       -71.0753   26.3656  -76.2816 H         1 UNK         0.0743 
     93 H93       -70.9705   25.5902  -73.9277 H         1 UNK         0.0784 
     94 H94       -72.5009   24.7446  -74.1038 H         1 UNK         0.0784 
     95 H95       -71.0918   24.2212  -75.0223 H         1 UNK         0.0784 
     96 H96       -73.4656   24.6296  -76.3679 H         1 UNK         0.3213 
     97 H97       -74.0311   25.3427  -79.8723 H         1 UNK         0.0855 
     98 H98       -73.7645   22.9081  -78.0221 H         1 UNK         0.0814 
     99 H99       -72.7703   23.2324  -79.4342 H         1 UNK         0.0814 
    100 H100      -74.4888   22.9255  -79.6258 H         1 UNK         0.0814 
    101 H101      -75.7996   24.3429  -77.8381 H         1 UNK         0.3105 
    102 H102      -77.4627   27.4404  -77.1826 H         1 UNK         0.0547 
    103 H103      -78.3680   24.9006  -78.6351 H         1 UNK         0.0837 
    104 H104      -78.6054   26.5547  -79.1553 H         1 UNK         0.0837 
    105 H105      -79.4124   25.9804  -77.7150 H         1 UNK         0.0837 
    106 H106      -77.3586   24.6250  -76.2548 H         1 UNK         0.3020 
    107 H107      -74.9826   25.2224  -73.9813 H         1 UNK         0.1245 
    108 H108      -76.3553   26.5377  -72.4057 H         1 UNK         0.0781 
    109 H109      -75.9530   24.9377  -71.8602 H         1 UNK         0.0781 
    110 H110      -77.6567   25.0243  -69.9172 H         1 UNK         0.0836 
    111 H111      -79.3819   25.2388  -70.0939 H         1 UNK         0.0836 
    112 H112      -77.2666   23.3514  -74.1360 H         1 UNK         0.3022 
    113 H113      -75.3557   21.1875  -76.2948 H         1 UNK         0.0747 
    114 H114      -75.9570   19.5189  -74.5653 H         1 UNK         0.0793 
    115 H115      -74.6779   20.5617  -73.9673 H         1 UNK         0.0793 
    116 H116      -76.3288   20.8004  -73.4111 H         1 UNK         0.0793 
    117 H117      -77.9829   20.8916  -75.2968 H         1 UNK         0.3047 
    118 H118      -79.5321   21.8697  -78.2023 H         1 UNK         0.0822 
    119 H119      -81.0823   20.6458  -76.7385 H         1 UNK         0.0807 
    120 H120      -80.0326   20.8546  -75.3461 H         1 UNK         0.0807 
    121 H121      -79.5217   19.8515  -76.7048 H         1 UNK         0.0807 
    122 H122      -80.7622   23.5784  -77.4866 H         1 UNK         0.2946 
    123 H123      -81.3917   25.3739  -76.4077 H         1 UNK         0.1144 
    124 H124      -82.9704   25.5042  -74.4872 H         1 UNK         0.0793 
    125 H125      -81.9882   24.3563  -73.5779 H         1 UNK         0.0793 
    126 H126      -82.8108   23.8467  -75.0467 H         1 UNK         0.0793 
    127 H127      -79.8608   25.9353  -73.8952 H         1 UNK         0.2896 
@<TRIPOS>BOND
     1    1    2 1    
     2    1   67 1    
     3    1   68 1    
     4    1   69 1    
     5    2    3 2    
     6    2    4 am   BACKBONE|DICT|INTERRES
     7    4    5 1    
     8    4   70 1    
     9    5    6 1    
    10    5   65 1    
    11    5   71 1    
    12    6    7 1    
    13    6   72 1    
    14    6   73 1    
    15    7    8 1    
    16    8    9 1    
    17    8   74 1    
    18    8   75 1    
    19    9   10 ar   
    20    9   14 ar   
    21   10   11 ar   
    22   10   76 1    
    23   11   12 ar   
    24   11   48 1    
    25   12   13 ar   
    26   12   77 1    
    27   13   14 ar   
    28   13   15 1    
    29   14   78 1    
    30   15   16 1    
    31   15   79 1    
    32   15   80 1    
    33   16   17 1    
    34   17   18 1    
    35   17   81 1    
    36   17   82 1    
    37   18   19 1    
    38   18   22 1    
    39   18   83 1    
    40   19   20 am   BACKBONE|DICT|INTERRES
    41   19   21 2    
    42   20   84 1    
    43   20   85 1    
    44   22   23 am   BACKBONE|DICT|INTERRES
    45   22   86 1    
    46   23   24 2    
    47   23   25 1    
    48   25   26 1    
    49   25   27 1    
    50   25   87 1    
    51   26   88 1    
    52   26   89 1    
    53   26   90 1    
    54   27   28 am   BACKBONE|DICT|INTERRES
    55   27   91 1    
    56   28   29 2    
    57   28   30 1    
    58   30   31 1    
    59   30   32 1    
    60   30   92 1    
    61   31   93 1    
    62   31   94 1    
    63   31   95 1    
    64   32   33 am   BACKBONE|DICT|INTERRES
    65   32   96 1    
    66   33   34 2    
    67   33   35 1    
    68   35   36 1    
    69   35   37 1    
    70   35   97 1    
    71   36   98 1    
    72   36   99 1    
    73   36  100 1    
    74   37   38 am   BACKBONE|DICT|INTERRES
    75   37  101 1    
    76   38   39 2    
    77   38   40 1    
    78   40   41 1    
    79   40   42 1    
    80   40  102 1    
    81   41  103 1    
    82   41  104 1    
    83   41  105 1    
    84   42   43 am   BACKBONE|DICT|INTERRES
    85   42  106 1    
    86   43   44 2    
    87   43   45 1    
    88   45   46 1    
    89   45   49 1    
    90   45  107 1    
    91   46   47 1    
    92   46  108 1    
    93   46  109 1    
    94   47   48 1    
    95   48  110 1    
    96   48  111 1    
    97   49   50 am   BACKBONE|DICT|INTERRES
    98   49  112 1    
    99   50   51 2    
   100   50   52 1    
   101   52   53 1    
   102   52   54 1    
   103   52  113 1    
   104   53  114 1    
   105   53  115 1    
   106   53  116 1    
   107   54   55 am   BACKBONE|DICT|INTERRES
   108   54  117 1    
   109   55   56 2    
   110   55   57 1    
   111   57   58 1    
   112   57   59 1    
   113   57  118 1    
   114   58  119 1    
   115   58  120 1    
   116   58  121 1    
   117   59   60 am   BACKBONE|DICT|INTERRES
   118   59  122 1    
   119   60   61 2    
   120   60   62 1    
   121   62   63 1    
   122   62   64 1    
   123   62  123 1    
   124   63  124 1    
   125   63  125 1    
   126   63  126 1    
   127   64   65 am   BACKBONE|DICT|INTERRES
   128   64  127 1    
   129   65   66 2    
@<TRIPOS>SUBSTRUCTURE
     1 UNK         1 GROUP             0       ****    0 ROOT    
