@<TRIPOS>MOLECULE
3R135
127   129    1
SMALL
USER_CHARGES


@<TRIPOS>ATOM
      1 CA        -84.3805   29.8948  -70.7156 C.3       0 UNK        -0.1998 
      2 C         -83.6249   28.9614  -71.6494 C.2       0 UNK         0.4909 
      3 O         -83.7321   27.7452  -71.4999 O.2       0 UNK        -0.5240 
      4 N         -82.8931   29.5339  -72.6172 N.am      1 UNK        -0.4739 
      5 CA        -82.0077   28.9375  -73.6376 C.3       1 UNK         0.0864 
      6 C6        -80.6534   28.4209  -73.0751 C.3       11 UNK        -0.0881 
      7 S7        -80.6885   26.8089  -72.2139 S.3       11 UNK        -0.2682 
      8 C8        -79.3946   27.0307  -70.9537 C.3       11 UNK         0.0289 
      9 C9        -77.9888   26.8518  -71.5162 C.ar      11 UNK        -0.0687 
     10 C10       -77.2915   25.6575  -71.3037 C.ar      11 UNK        -0.0823 
     11 C11       -75.9693   25.5164  -71.7393 C.ar      11 UNK        -0.0830 
     12 C12       -75.3529   26.5744  -72.4147 C.ar      11 UNK        -0.1021 
     13 C13       -76.0495   27.7585  -72.6639 C.ar      11 UNK        -0.0753 
     14 C14       -77.3623   27.8959  -72.2038 C.ar      11 UNK        -0.0933 
     15 C15       -75.3759   28.8967  -73.4126 C.3       11 UNK         0.0166 
     16 S16       -75.2987   28.5447  -75.1940 S.3       11 UNK        -0.2615 
     17 C17       -74.9291   30.2030  -75.8600 C.3       11 UNK        -0.0865 
     18 CA        -73.5991   30.2641  -76.6691 C.3       10 UNK         0.0862 
     19 C         -73.4074   31.6113  -77.4354 C.2       10 UNK         0.5551 
     20 N         -74.4435   32.1205  -78.0896 N.am      10 UNK        -0.7319 
     21 O         -72.3205   32.1851  -77.4894 O.2       10 UNK        -0.5018 
     22 N         -72.4108   29.8648  -75.8912 N.am      10 UNK        -0.4509 
     23 C         -71.9112   30.5126  -74.8290 C.2       10 UNK         0.4899 
     24 O         -72.4901   31.4360  -74.2529 O.2       10 UNK        -0.4839 
     25 CA        -70.5025   30.0877  -74.3654 C.3       9 UNK         0.0222 
     26 CB        -70.0518   30.8048  -73.0737 C.3       9 UNK        -0.1966 
     27 N         -70.3228   28.6375  -74.2390 N.am      9 UNK        -0.4218 
     28 C         -70.9664   27.7994  -73.4152 C.2       9 UNK         0.5020 
     29 O         -71.8857   28.1315  -72.6665 O.2       9 UNK        -0.5274 
     30 CA        -70.4777   26.3376  -73.4338 C.3       8 UNK         0.0270 
     31 CB        -71.1934   25.4500  -72.3992 C.3       8 UNK        -0.1976 
     32 N         -70.6175   25.7414  -74.7638 N.am      8 UNK        -0.4313 
     33 C         -69.7622   25.9182  -75.7792 C.2       8 UNK         0.5041 
     34 O         -68.7421   26.6045  -75.6980 O.2       8 UNK        -0.5577 
     35 CA        -70.1326   25.2602  -77.1177 C.3       7 UNK         0.0284 
     36 CB        -69.6737   23.7938  -77.1484 C.3       7 UNK        -0.1958 
     37 N         -71.5671   25.3308  -77.4060 N.am      7 UNK        -0.4454 
     38 C         -72.2508   26.4582  -77.6366 C.2       7 UNK         0.5089 
     39 O         -71.7403   27.5786  -77.6293 O.2       7 UNK        -0.5125 
     40 CA        -73.7597   26.3181  -77.9029 C.3       6 UNK         0.0408 
     41 CB        -74.0356   25.7389  -79.3038 C.3       6 UNK        -0.1791 
     42 N         -74.4890   25.5906  -76.8555 N.am      6 UNK        -0.4762 
     43 C         -74.4199   24.2930  -76.5187 C.2       6 UNK         0.5007 
     44 O         -73.6677   23.4846  -77.0647 O.2       6 UNK        -0.5032 
     45 CA        -75.3169   23.8167  -75.3576 C.3       5 UNK         0.0783 
     46 C46       -74.4646   23.5684  -74.0908 C.3       11 UNK        -0.0857 
     47 S47       -75.4500   22.9459  -72.6861 S.3       11 UNK        -0.2512 
     48 C48       -75.1954   24.2413  -71.4312 C.3       11 UNK         0.0225 
     49 N         -76.4395   24.7279  -75.1031 N.am      5 UNK        -0.4615 
     50 C         -77.5409   24.7830  -75.8591 C.2       4 UNK         0.5053 
     51 O         -77.7085   24.1152  -76.8822 O.2       4 UNK        -0.5105 
     52 CA        -78.6376   25.7584  -75.4049 C.3       4 UNK         0.0263 
     53 CB        -78.7182   26.9501  -76.3740 C.3       4 UNK        -0.1981 
     54 N         -79.9502   25.1128  -75.3271 N.am      4 UNK        -0.4224 
     55 C         -80.2568   24.0582  -74.5551 C.2       3 UNK         0.4895 
     56 O         -79.4623   23.5086  -73.7904 O.2       3 UNK        -0.5091 
     57 CA        -81.7096   23.5635  -74.6332 C.3       3 UNK         0.0250 
     58 CB        -82.0532   22.5195  -73.5531 C.3       3 UNK        -0.1996 
     59 N         -82.6183   24.7013  -74.5084 N.am      3 UNK        -0.4254 
     60 C         -83.6444   24.9735  -75.3233 C.2       2 UNK         0.5004 
     61 O         -83.9729   24.2624  -76.2737 O.2       2 UNK        -0.5226 
     62 CA        -84.4438   26.2587  -75.0392 C.3       2 UNK         0.0269 
     63 CB        -85.7681   25.9240  -74.3338 C.3       2 UNK        -0.1926 
     64 N         -83.7129   27.2402  -74.2323 N.am      2 UNK        -0.4687 
     65 C         -82.6602   27.9569  -74.6419 C.2       1 UNK         0.5165 
     66 O         -82.2000   27.8743  -75.7813 O.2       1 UNK        -0.5079 
     67 H67       -85.4512   29.7023  -70.7788 H         1 UNK         0.0900 
     68 H68       -84.2094   30.9437  -70.9571 H         1 UNK         0.0900 
     69 H69       -84.0649   29.7287  -69.6860 H         1 UNK         0.0900 
     70 H70       -82.9241   30.5431  -72.6668 H         1 UNK         0.2959 
     71 H71       -81.7499   29.7969  -74.2595 H         1 UNK         0.1079 
     72 H72       -79.9267   28.3398  -73.8837 H         1 UNK         0.0837 
     73 H73       -80.2480   29.1755  -72.4003 H         1 UNK         0.0837 
     74 H74       -79.5697   26.3064  -70.1568 H         1 UNK         0.0685 
     75 H75       -79.4912   28.0124  -70.4880 H         1 UNK         0.0685 
     76 H76       -77.7690   24.8447  -70.7733 H         1 UNK         0.1434 
     77 H77       -74.3270   26.4917  -72.7440 H         1 UNK         0.1329 
     78 H78       -77.8914   28.8231  -72.3705 H         1 UNK         0.1335 
     79 H79       -75.9213   29.8267  -73.2460 H         1 UNK         0.0680 
     80 H80       -74.3673   29.0563  -73.0297 H         1 UNK         0.0680 
     81 H81       -74.9211   30.9430  -75.0590 H         1 UNK         0.1032 
     82 H82       -75.7783   30.4677  -76.4905 H         1 UNK         0.1032 
     83 H83       -73.6692   29.5222  -77.4628 H         1 UNK         0.0461 
     84 H84       -74.3195   32.9811  -78.6000 H         1 UNK         0.3453 
     85 H85       -75.3391   31.6595  -78.1021 H         1 UNK         0.3453 
     86 H86       -71.8713   29.1152  -76.3105 H         1 UNK         0.2984 
     87 H87       -69.8239   30.4016  -75.1599 H         1 UNK         0.0554 
     88 H88       -69.0364   30.5230  -72.7954 H         1 UNK         0.0847 
     89 H89       -70.7069   30.5737  -72.2330 H         1 UNK         0.0847 
     90 H90       -70.0611   31.8877  -73.2036 H         1 UNK         0.0847 
     91 H91       -69.6111   28.2222  -74.8348 H         1 UNK         0.3141 
     92 H92       -69.4188   26.3527  -73.1657 H         1 UNK         0.0743 
     93 H93       -72.2660   25.4122  -72.5736 H         1 UNK         0.0784 
     94 H94       -70.8117   24.4290  -72.4163 H         1 UNK         0.0784 
     95 H95       -71.0441   25.8337  -71.3890 H         1 UNK         0.0784 
     96 H96       -71.4503   25.1991  -74.9358 H         1 UNK         0.3213 
     97 H97       -69.6059   25.8009  -77.9073 H         1 UNK         0.0855 
     98 H98       -70.1913   23.1904  -76.4015 H         1 UNK         0.0814 
     99 H99       -68.6041   23.7155  -76.9478 H         1 UNK         0.0814 
    100 H100      -69.8523   23.3433  -78.1249 H         1 UNK         0.0814 
    101 H101      -72.0960   24.4615  -77.4055 H         1 UNK         0.3105 
    102 H102      -74.1764   27.3249  -77.8923 H         1 UNK         0.0547 
    103 H103      -73.5698   26.3533  -80.0752 H         1 UNK         0.0837 
    104 H104      -73.6448   24.7277  -79.4188 H         1 UNK         0.0837 
    105 H105      -75.1045   25.7097  -79.5152 H         1 UNK         0.0837 
    106 H106      -75.1103   26.1669  -76.3026 H         1 UNK         0.3020 
    107 H107      -75.7330   22.8548  -75.6673 H         1 UNK         0.1245 
    108 H108      -73.9406   24.4778  -73.8028 H         1 UNK         0.0781 
    109 H109      -73.6883   22.8282  -74.2953 H         1 UNK         0.0781 
    110 H110      -74.1301   24.4518  -71.3283 H         1 UNK         0.0836 
    111 H111      -75.5129   23.8504  -70.4634 H         1 UNK         0.0836 
    112 H112      -76.3924   25.2732  -74.2524 H         1 UNK         0.3022 
    113 H113      -78.3945   26.1327  -74.4085 H         1 UNK         0.0747 
    114 H114      -79.4656   27.6771  -76.0605 H         1 UNK         0.0793 
    115 H115      -77.7640   27.4734  -76.4318 H         1 UNK         0.0793 
    116 H116      -78.9725   26.6292  -77.3850 H         1 UNK         0.0793 
    117 H117      -80.6737   25.4984  -75.9168 H         1 UNK         0.3047 
    118 H118      -81.8212   23.0918  -75.6119 H         1 UNK         0.0822 
    119 H119      -81.4099   21.6426  -73.6363 H         1 UNK         0.0807 
    120 H120      -83.0829   22.1751  -73.6492 H         1 UNK         0.0807 
    121 H121      -81.9273   22.9253  -72.5485 H         1 UNK         0.0807 
    122 H122      -82.4057   25.3602  -73.7697 H         1 UNK         0.2946 
    123 H123      -84.6719   26.7153  -76.0051 H         1 UNK         0.1144 
    124 H124      -86.3536   25.2115  -74.9167 H         1 UNK         0.0793 
    125 H125      -86.3825   26.8147  -74.2008 H         1 UNK         0.0793 
    126 H126      -85.5996   25.4826  -73.3506 H         1 UNK         0.0793 
    127 H127      -83.9713   27.3302  -73.2512 H         1 UNK         0.2896 
@<TRIPOS>BOND
     1    1    2 1    
     2    1   67 1    
     3    1   68 1    
     4    1   69 1    
     5    2    3 2    
     6    2    4 am   BACKBONE|DICT|INTERRES
     7    4    5 1    
     8    4   70 1    
     9    5    6 1    
    10    5   65 1    
    11    5   71 1    
    12    6    7 1    
    13    6   72 1    
    14    6   73 1    
    15    7    8 1    
    16    8    9 1    
    17    8   74 1    
    18    8   75 1    
    19    9   10 ar   
    20    9   14 ar   
    21   10   11 ar   
    22   10   76 1    
    23   11   12 ar   
    24   11   48 1    
    25   12   13 ar   
    26   12   77 1    
    27   13   14 ar   
    28   13   15 1    
    29   14   78 1    
    30   15   16 1    
    31   15   79 1    
    32   15   80 1    
    33   16   17 1    
    34   17   18 1    
    35   17   81 1    
    36   17   82 1    
    37   18   19 1    
    38   18   22 1    
    39   18   83 1    
    40   19   20 am   BACKBONE|DICT|INTERRES
    41   19   21 2    
    42   20   84 1    
    43   20   85 1    
    44   22   23 am   BACKBONE|DICT|INTERRES
    45   22   86 1    
    46   23   24 2    
    47   23   25 1    
    48   25   26 1    
    49   25   27 1    
    50   25   87 1    
    51   26   88 1    
    52   26   89 1    
    53   26   90 1    
    54   27   28 am   BACKBONE|DICT|INTERRES
    55   27   91 1    
    56   28   29 2    
    57   28   30 1    
    58   30   31 1    
    59   30   32 1    
    60   30   92 1    
    61   31   93 1    
    62   31   94 1    
    63   31   95 1    
    64   32   33 am   BACKBONE|DICT|INTERRES
    65   32   96 1    
    66   33   34 2    
    67   33   35 1    
    68   35   36 1    
    69   35   37 1    
    70   35   97 1    
    71   36   98 1    
    72   36   99 1    
    73   36  100 1    
    74   37   38 am   BACKBONE|DICT|INTERRES
    75   37  101 1    
    76   38   39 2    
    77   38   40 1    
    78   40   41 1    
    79   40   42 1    
    80   40  102 1    
    81   41  103 1    
    82   41  104 1    
    83   41  105 1    
    84   42   43 am   BACKBONE|DICT|INTERRES
    85   42  106 1    
    86   43   44 2    
    87   43   45 1    
    88   45   46 1    
    89   45   49 1    
    90   45  107 1    
    91   46   47 1    
    92   46  108 1    
    93   46  109 1    
    94   47   48 1    
    95   48  110 1    
    96   48  111 1    
    97   49   50 am   BACKBONE|DICT|INTERRES
    98   49  112 1    
    99   50   51 2    
   100   50   52 1    
   101   52   53 1    
   102   52   54 1    
   103   52  113 1    
   104   53  114 1    
   105   53  115 1    
   106   53  116 1    
   107   54   55 am   BACKBONE|DICT|INTERRES
   108   54  117 1    
   109   55   56 2    
   110   55   57 1    
   111   57   58 1    
   112   57   59 1    
   113   57  118 1    
   114   58  119 1    
   115   58  120 1    
   116   58  121 1    
   117   59   60 am   BACKBONE|DICT|INTERRES
   118   59  122 1    
   119   60   61 2    
   120   60   62 1    
   121   62   63 1    
   122   62   64 1    
   123   62  123 1    
   124   63  124 1    
   125   63  125 1    
   126   63  126 1    
   127   64   65 am   BACKBONE|DICT|INTERRES
   128   64  127 1    
   129   65   66 2    
@<TRIPOS>SUBSTRUCTURE
     1 UNK         1 GROUP             0       ****    0 ROOT    
