@<TRIPOS>MOLECULE
3R135
127   129    1
SMALL
USER_CHARGES


@<TRIPOS>ATOM
      1 CA        -82.7848   26.2745  -73.5285 C.3       0 UNK        -0.1998 
      2 C         -81.9250   26.5222  -74.7580 C.2       0 UNK         0.4909 
      3 O         -82.2833   26.0774  -75.8486 O.2       0 UNK        -0.5240 
      4 N         -80.7936   27.2210  -74.5822 N.am      1 UNK        -0.4739 
      5 CA        -79.8104   27.5940  -75.6084 C.3       1 UNK         0.0864 
      6 C6        -78.6247   28.3859  -74.9986 C.3       11 UNK        -0.0881 
      7 S7        -79.1099   30.0138  -74.3270 S.3       11 UNK        -0.2682 
      8 C8        -79.4397   29.6814  -72.5639 C.3       11 UNK         0.0289 
      9 C9        -78.1963   29.2687  -71.7879 C.ar      11 UNK        -0.0687 
     10 C10       -77.9318   27.9178  -71.5535 C.ar      11 UNK        -0.0823 
     11 C11       -76.8158   27.5291  -70.8106 C.ar      11 UNK        -0.0830 
     12 C12       -75.9713   28.5069  -70.2765 C.ar      11 UNK        -0.1021 
     13 C13       -76.2191   29.8690  -70.5014 C.ar      11 UNK        -0.0753 
     14 C14       -77.3346   30.2363  -71.2631 C.ar      11 UNK        -0.0933 
     15 C15       -75.3463   30.9800  -69.9112 C.3       11 UNK         0.0166 
     16 S16       -73.6889   30.4758  -69.3308 S.3       11 UNK        -0.2615 
     17 C17       -72.8187   30.1995  -70.9115 C.3       11 UNK        -0.0865 
     18 CA        -71.9931   31.4403  -71.3681 C.3       10 UNK         0.0862 
     19 C         -70.5850   31.5488  -70.6993 C.2       10 UNK         0.5551 
     20 N         -69.5965   32.1469  -71.3540 N.am      10 UNK        -0.7319 
     21 O         -70.3829   31.1121  -69.5690 O.2       10 UNK        -0.5018 
     22 N         -71.9916   31.5898  -72.8342 N.am      10 UNK        -0.4509 
     23 C         -71.4550   30.7243  -73.7036 C.2       10 UNK         0.4899 
     24 O         -70.8609   29.6932  -73.3801 O.2       10 UNK        -0.4839 
     25 CA        -71.5766   31.1024  -75.1901 C.3       9 UNK         0.0222 
     26 CB        -70.3779   31.9618  -75.6251 C.3       9 UNK        -0.1966 
     27 N         -71.6563   29.9194  -76.0498 N.am      9 UNK        -0.4218 
     28 C         -72.6855   29.0630  -76.0708 C.2       9 UNK         0.5020 
     29 O         -73.7162   29.2075  -75.4067 O.2       9 UNK        -0.5274 
     30 CA        -72.5121   27.8246  -76.9674 C.3       8 UNK         0.0270 
     31 CB        -71.6814   26.7513  -76.2444 C.3       8 UNK        -0.1976 
     32 N         -73.8082   27.2576  -77.3441 N.am      8 UNK        -0.4313 
     33 C         -74.6395   27.8088  -78.2415 C.2       8 UNK         0.5041 
     34 O         -74.3364   28.7872  -78.9280 O.2       8 UNK        -0.5577 
     35 CA        -76.0496   27.1963  -78.3841 C.3       7 UNK         0.0284 
     36 CB        -76.6298   27.3474  -79.8069 C.3       7 UNK        -0.1958 
     37 N         -76.1498   25.8100  -77.9148 N.am      7 UNK        -0.4454 
     38 C         -75.5329   24.7263  -78.4110 C.2       7 UNK         0.5089 
     39 O         -74.8201   24.7376  -79.4151 O.2       7 UNK        -0.5125 
     40 CA        -75.7424   23.4104  -77.6289 C.3       6 UNK         0.0408 
     41 CB        -74.5635   22.4307  -77.8069 C.3       6 UNK        -0.1791 
     42 N         -76.0330   23.6079  -76.1983 N.am      6 UNK        -0.4762 
     43 C         -75.2676   24.2613  -75.3067 C.2       6 UNK         0.5007 
     44 O         -74.2055   24.8019  -75.6147 O.2       6 UNK        -0.5032 
     45 CA        -75.7723   24.3467  -73.8510 C.3       5 UNK         0.0783 
     46 C46       -75.3933   25.6888  -73.1563 C.3       11 UNK        -0.0857 
     47 S47       -75.0243   25.4700  -71.3826 S.3       11 UNK        -0.2512 
     48 C48       -76.5425   26.0518  -70.5635 C.3       11 UNK         0.0225 
     49 N         -77.2197   24.1000  -73.7921 N.am      5 UNK        -0.4615 
     50 C         -77.8125   23.2306  -72.9660 C.2       4 UNK         0.5053 
     51 O         -77.1974   22.4860  -72.2031 O.2       4 UNK        -0.5105 
     52 CA        -79.3467   23.1811  -72.9686 C.3       4 UNK         0.0263 
     53 CB        -79.9294   24.3516  -72.1610 C.3       4 UNK        -0.1981 
     54 N         -79.9286   23.1913  -74.3159 N.am      4 UNK        -0.4224 
     55 C         -80.7032   22.2085  -74.8016 C.2       3 UNK         0.4895 
     56 O         -80.8912   21.1385  -74.2206 O.2       3 UNK        -0.5091 
     57 CA        -81.4364   22.4473  -76.1345 C.3       3 UNK         0.0250 
     58 CB        -82.9480   22.5996  -75.8922 C.3       3 UNK        -0.1996 
     59 N         -80.9602   23.6222  -76.8652 N.am      3 UNK        -0.4254 
     60 C         -79.9388   23.6052  -77.7312 C.2       2 UNK         0.5004 
     61 O         -79.2831   22.5986  -77.9973 O.2       2 UNK        -0.5226 
     62 CA        -79.5702   24.9387  -78.4044 C.3       2 UNK         0.0269 
     63 CB        -80.3202   25.0888  -79.7373 C.3       2 UNK        -0.1926 
     64 N         -79.8242   26.1208  -77.5730 N.am      2 UNK        -0.4687 
     65 C         -79.2967   26.3520  -76.3631 C.2       1 UNK         0.5165 
     66 O         -78.4756   25.6067  -75.8206 O.2       1 UNK        -0.5079 
     67 H67       -83.7593   26.7453  -73.6540 H         1 UNK         0.0900 
     68 H68       -82.9400   25.2053  -73.3885 H         1 UNK         0.0900 
     69 H69       -82.3292   26.6727  -72.6221 H         1 UNK         0.0900 
     70 H70       -80.5826   27.5641  -73.6586 H         1 UNK         0.2959 
     71 H71       -80.3173   28.2422  -76.3264 H         1 UNK         0.1079 
     72 H72       -77.8743   28.5862  -75.7652 H         1 UNK         0.0837 
     73 H73       -78.1088   27.7999  -74.2391 H         1 UNK         0.0837 
     74 H74       -80.2189   28.9257  -72.4670 H         1 UNK         0.0685 
     75 H75       -79.8545   30.5869  -72.1184 H         1 UNK         0.0685 
     76 H76       -78.5991   27.1667  -71.9475 H         1 UNK         0.1434 
     77 H77       -75.1241   28.1919  -69.6844 H         1 UNK         0.1329 
     78 H78       -77.5454   31.2833  -71.4350 H         1 UNK         0.1335 
     79 H79       -75.2252   31.7806  -70.6429 H         1 UNK         0.0680 
     80 H80       -75.8808   31.4151  -69.0658 H         1 UNK         0.0680 
     81 H81       -72.1808   29.3183  -70.8215 H         1 UNK         0.1032 
     82 H82       -73.5636   29.9363  -71.6647 H         1 UNK         0.1032 
     83 H83       -72.5225   32.3290  -71.0225 H         1 UNK         0.0461 
     84 H84       -68.6906   32.2230  -70.9189 H         1 UNK         0.3453 
     85 H85       -69.7468   32.5172  -72.2783 H         1 UNK         0.3453 
     86 H86       -72.4331   32.4266  -73.1885 H         1 UNK         0.2984 
     87 H87       -72.4912   31.6826  -75.3313 H         1 UNK         0.0554 
     88 H88       -70.3145   32.8756  -75.0330 H         1 UNK         0.0847 
     89 H89       -70.4619   32.2628  -76.6697 H         1 UNK         0.0847 
     90 H90       -69.4334   31.4296  -75.5033 H         1 UNK         0.0847 
     91 H91       -70.8343   29.7016  -76.5941 H         1 UNK         0.3141 
     92 H92       -71.9862   28.1188  -77.8783 H         1 UNK         0.0743 
     93 H93       -70.6723   27.1092  -76.0369 H         1 UNK         0.0784 
     94 H94       -71.5883   25.8465  -76.8457 H         1 UNK         0.0784 
     95 H95       -72.1281   26.4738  -75.2886 H         1 UNK         0.0784 
     96 H96       -74.1189   26.4561  -76.8045 H         1 UNK         0.3213 
     97 H97       -76.6835   27.7806  -77.7170 H         1 UNK         0.0855 
     98 H98       -76.0144   26.8427  -80.5520 H         1 UNK         0.0814 
     99 H99       -76.6895   28.3973  -80.0959 H         1 UNK         0.0814 
    100 H100      -77.6383   26.9410  -79.8714 H         1 UNK         0.0814 
    101 H101      -76.7072   25.6702  -77.0796 H         1 UNK         0.3105 
    102 H102      -76.6262   22.9407  -78.0604 H         1 UNK         0.0547 
    103 H103      -74.7323   21.5028  -77.2610 H         1 UNK         0.0837 
    104 H104      -73.6241   22.8603  -77.4573 H         1 UNK         0.0837 
    105 H105      -74.4281   22.1657  -78.8562 H         1 UNK         0.0837 
    106 H106      -76.8977   23.2031  -75.8666 H         1 UNK         0.3020 
    107 H107      -75.2376   23.5361  -73.3504 H         1 UNK         0.1245 
    108 H108      -76.1712   26.4386  -73.3022 H         1 UNK         0.0781 
    109 H109      -74.4906   26.1353  -73.5762 H         1 UNK         0.0781 
    110 H110      -76.4485   25.8828  -69.4900 H         1 UNK         0.0836 
    111 H111      -77.3786   25.4368  -70.8944 H         1 UNK         0.0836 
    112 H112      -77.7795   24.6733  -74.4192 H         1 UNK         0.3022 
    113 H113      -79.6224   22.2644  -72.4428 H         1 UNK         0.0747 
    114 H114      -81.0087   24.2502  -72.0496 H         1 UNK         0.0793 
    115 H115      -79.5085   24.3856  -71.1556 H         1 UNK         0.0793 
    116 H116      -79.7300   25.3085  -72.6404 H         1 UNK         0.0793 
    117 H117      -79.7791   24.0146  -74.8831 H         1 UNK         0.3047 
    118 H118      -81.2854   21.5566  -76.7486 H         1 UNK         0.0822 
    119 H119      -83.4902   22.7134  -76.8310 H         1 UNK         0.0807 
    120 H120      -83.1730   23.4657  -75.2692 H         1 UNK         0.0807 
    121 H121      -83.3558   21.7216  -75.3892 H         1 UNK         0.0807 
    122 H122      -81.4426   24.5002  -76.6882 H         1 UNK         0.2946 
    123 H123      -78.5057   24.8978  -78.6259 H         1 UNK         0.1144 
    124 H124      -80.0017   25.9816  -80.2756 H         1 UNK         0.0793 
    125 H125      -81.3989   25.1528  -79.5883 H         1 UNK         0.0793 
    126 H126      -80.1313   24.2353  -80.3902 H         1 UNK         0.0793 
    127 H127      -80.5320   26.7563  -77.9137 H         1 UNK         0.2896 
@<TRIPOS>BOND
     1    1    2 1    
     2    1   67 1    
     3    1   68 1    
     4    1   69 1    
     5    2    3 2    
     6    2    4 am   BACKBONE|DICT|INTERRES
     7    4    5 1    
     8    4   70 1    
     9    5    6 1    
    10    5   65 1    
    11    5   71 1    
    12    6    7 1    
    13    6   72 1    
    14    6   73 1    
    15    7    8 1    
    16    8    9 1    
    17    8   74 1    
    18    8   75 1    
    19    9   10 ar   
    20    9   14 ar   
    21   10   11 ar   
    22   10   76 1    
    23   11   12 ar   
    24   11   48 1    
    25   12   13 ar   
    26   12   77 1    
    27   13   14 ar   
    28   13   15 1    
    29   14   78 1    
    30   15   16 1    
    31   15   79 1    
    32   15   80 1    
    33   16   17 1    
    34   17   18 1    
    35   17   81 1    
    36   17   82 1    
    37   18   19 1    
    38   18   22 1    
    39   18   83 1    
    40   19   20 am   BACKBONE|DICT|INTERRES
    41   19   21 2    
    42   20   84 1    
    43   20   85 1    
    44   22   23 am   BACKBONE|DICT|INTERRES
    45   22   86 1    
    46   23   24 2    
    47   23   25 1    
    48   25   26 1    
    49   25   27 1    
    50   25   87 1    
    51   26   88 1    
    52   26   89 1    
    53   26   90 1    
    54   27   28 am   BACKBONE|DICT|INTERRES
    55   27   91 1    
    56   28   29 2    
    57   28   30 1    
    58   30   31 1    
    59   30   32 1    
    60   30   92 1    
    61   31   93 1    
    62   31   94 1    
    63   31   95 1    
    64   32   33 am   BACKBONE|DICT|INTERRES
    65   32   96 1    
    66   33   34 2    
    67   33   35 1    
    68   35   36 1    
    69   35   37 1    
    70   35   97 1    
    71   36   98 1    
    72   36   99 1    
    73   36  100 1    
    74   37   38 am   BACKBONE|DICT|INTERRES
    75   37  101 1    
    76   38   39 2    
    77   38   40 1    
    78   40   41 1    
    79   40   42 1    
    80   40  102 1    
    81   41  103 1    
    82   41  104 1    
    83   41  105 1    
    84   42   43 am   BACKBONE|DICT|INTERRES
    85   42  106 1    
    86   43   44 2    
    87   43   45 1    
    88   45   46 1    
    89   45   49 1    
    90   45  107 1    
    91   46   47 1    
    92   46  108 1    
    93   46  109 1    
    94   47   48 1    
    95   48  110 1    
    96   48  111 1    
    97   49   50 am   BACKBONE|DICT|INTERRES
    98   49  112 1    
    99   50   51 2    
   100   50   52 1    
   101   52   53 1    
   102   52   54 1    
   103   52  113 1    
   104   53  114 1    
   105   53  115 1    
   106   53  116 1    
   107   54   55 am   BACKBONE|DICT|INTERRES
   108   54  117 1    
   109   55   56 2    
   110   55   57 1    
   111   57   58 1    
   112   57   59 1    
   113   57  118 1    
   114   58  119 1    
   115   58  120 1    
   116   58  121 1    
   117   59   60 am   BACKBONE|DICT|INTERRES
   118   59  122 1    
   119   60   61 2    
   120   60   62 1    
   121   62   63 1    
   122   62   64 1    
   123   62  123 1    
   124   63  124 1    
   125   63  125 1    
   126   63  126 1    
   127   64   65 am   BACKBONE|DICT|INTERRES
   128   64  127 1    
   129   65   66 2    
@<TRIPOS>SUBSTRUCTURE
     1 UNK         1 GROUP             0       ****    0 ROOT    
