@<TRIPOS>MOLECULE
3R135
127   129    1
SMALL
USER_CHARGES


@<TRIPOS>ATOM
      1 CA        -80.4654   30.5406  -77.2835 C.3       0 UNK        -0.1998 
      2 C         -80.4281   30.0903  -75.8311 C.2       0 UNK         0.4909 
      3 O         -79.7941   30.7444  -75.0055 O.2       0 UNK        -0.5240 
      4 N         -81.0996   28.9785  -75.5193 N.am      1 UNK        -0.4739 
      5 CA        -81.1437   28.3312  -74.2097 C.3       1 UNK         0.0864 
      6 C6        -82.1150   29.0586  -73.2442 C.3       11 UNK        -0.0881 
      7 S7        -82.0073   28.4964  -71.5112 S.3       11 UNK        -0.2682 
      8 C8        -80.7909   29.6536  -70.8011 C.3       11 UNK         0.0289 
      9 C9        -79.3642   29.2235  -71.1085 C.ar      11 UNK        -0.0687 
     10 C10       -78.8221   28.1080  -70.4630 C.ar      11 UNK        -0.0823 
     11 C11       -77.5215   27.6812  -70.7438 C.ar      11 UNK        -0.0830 
     12 C12       -76.7642   28.3899  -71.6826 C.ar      11 UNK        -0.1021 
     13 C13       -77.2814   29.5196  -72.3187 C.ar      11 UNK        -0.0753 
     14 C14       -78.5839   29.9345  -72.0258 C.ar      11 UNK        -0.0933 
     15 C15       -76.4396   30.2658  -73.3446 C.3       11 UNK         0.0166 
     16 S16       -75.4631   31.6222  -72.6089 S.3       11 UNK        -0.2615 
     17 C17       -74.1702   30.7511  -71.6469 C.3       11 UNK        -0.0865 
     18 CA        -72.8218   30.5835  -72.3991 C.3       10 UNK         0.0862 
     19 C         -71.7517   29.9193  -71.4828 C.2       10 UNK         0.5551 
     20 N         -71.2129   28.7517  -71.8127 N.am      10 UNK        -0.7319 
     21 O         -71.3997   30.4831  -70.4494 O.2       10 UNK        -0.5018 
     22 N         -73.0027   29.9269  -73.7013 N.am      10 UNK        -0.4509 
     23 C         -72.1558   30.0119  -74.7316 C.2       10 UNK         0.4899 
     24 O         -71.0881   30.6276  -74.7115 O.2       10 UNK        -0.4839 
     25 CA        -72.6120   29.3029  -76.0162 C.3       9 UNK         0.0222 
     26 CB        -72.3673   30.1857  -77.2526 C.3       9 UNK        -0.1966 
     27 N         -72.0326   27.9784  -76.2601 N.am      9 UNK        -0.4218 
     28 C         -71.7431   26.9965  -75.3925 C.2       9 UNK         0.5020 
     29 O         -71.7010   27.1263  -74.1676 O.2       9 UNK        -0.5274 
     30 CA        -71.5052   25.6079  -76.0245 C.3       8 UNK         0.0270 
     31 CB        -71.2701   24.5092  -74.9710 C.3       8 UNK        -0.1976 
     32 N         -72.6423   25.2199  -76.8684 N.am      8 UNK        -0.4313 
     33 C         -72.8514   25.6477  -78.1214 C.2       8 UNK         0.5041 
     34 O         -72.0421   26.3377  -78.7434 O.2       8 UNK        -0.5577 
     35 CA        -74.2217   25.3418  -78.7464 C.3       7 UNK         0.0284 
     36 CB        -74.3452   23.8591  -79.1322 C.3       7 UNK        -0.1958 
     37 N         -75.3200   25.7357  -77.8582 N.am      7 UNK        -0.4454 
     38 C         -75.6153   27.0054  -77.5337 C.2       7 UNK         0.5089 
     39 O         -75.0605   27.9846  -78.0308 O.2       7 UNK        -0.5125 
     40 CA        -76.7040   27.2288  -76.4704 C.3       6 UNK         0.0408 
     41 CB        -78.0970   27.2563  -77.1168 C.3       6 UNK        -0.1791 
     42 N         -76.6766   26.2021  -75.4321 N.am      6 UNK        -0.4762 
     43 C         -75.7485   26.0839  -74.4738 C.2       6 UNK         0.5007 
     44 O         -74.8666   26.9189  -74.2790 O.2       6 UNK        -0.5032 
     45 CA        -75.7962   24.7938  -73.6239 C.3       5 UNK         0.0783 
     46 C46       -76.6587   24.9434  -72.3458 C.3       11 UNK        -0.0857 
     47 S47       -75.6897   25.5310  -70.9215 S.3       11 UNK        -0.2512 
     48 C48       -76.9590   26.4682  -70.0035 C.3       11 UNK         0.0225 
     49 N         -76.2589   23.6490  -74.4098 N.am      5 UNK        -0.4615 
     50 C         -75.5307   22.9881  -75.3140 C.2       4 UNK         0.5053 
     51 O         -74.3733   23.2847  -75.6076 O.2       4 UNK        -0.5105 
     52 CA        -76.2199   21.8062  -76.0184 C.3       4 UNK         0.0263 
     53 CB        -76.0045   20.5098  -75.2220 C.3       4 UNK        -0.1981 
     54 N         -77.6569   22.0179  -76.2287 N.am      4 UNK        -0.4224 
     55 C         -78.1575   22.9083  -77.0956 C.2       3 UNK         0.4895 
     56 O         -77.4607   23.6419  -77.7972 O.2       3 UNK        -0.5091 
     57 CA        -79.6915   23.0295  -77.1677 C.3       3 UNK         0.0250 
     58 CB        -80.3016   21.8027  -77.8662 C.3       3 UNK        -0.1996 
     59 N         -80.3865   23.2688  -75.8915 N.am      3 UNK        -0.4254 
     60 C         -80.0407   24.1776  -74.9686 C.2       2 UNK         0.5004 
     61 O         -78.9653   24.7728  -74.9600 O.2       2 UNK        -0.5226 
     62 CA        -81.0547   24.5016  -73.8590 C.3       2 UNK         0.0269 
     63 CB        -80.6939   23.7569  -72.5640 C.3       2 UNK        -0.1926 
     64 N         -81.0513   25.9468  -73.6011 N.am      2 UNK        -0.4687 
     65 C         -81.5139   26.8582  -74.4676 C.2       1 UNK         0.5165 
     66 O         -82.1834   26.5677  -75.4649 O.2       1 UNK        -0.5079 
     67 H67       -80.9144   31.5307  -77.3574 H         1 UNK         0.0900 
     68 H68       -81.0421   29.8581  -77.9076 H         1 UNK         0.0900 
     69 H69       -79.4536   30.5940  -77.6847 H         1 UNK         0.0900 
     70 H70       -81.5923   28.4538  -76.2333 H         1 UNK         0.2959 
     71 H71       -80.1335   28.3513  -73.7956 H         1 UNK         0.1079 
     72 H72       -83.1460   28.9386  -73.5821 H         1 UNK         0.0837 
     73 H73       -81.9267   30.1329  -73.2642 H         1 UNK         0.0837 
     74 H74       -80.9835   30.6671  -71.1565 H         1 UNK         0.0685 
     75 H75       -80.9269   29.6817  -69.7190 H         1 UNK         0.0685 
     76 H76       -79.4225   27.5681  -69.7430 H         1 UNK         0.1434 
     77 H77       -75.7637   28.0635  -71.9260 H         1 UNK         0.1329 
     78 H78       -78.9934   30.8028  -72.5235 H         1 UNK         0.1335 
     79 H79       -75.7806   29.5725  -73.8673 H         1 UNK         0.0680 
     80 H80       -77.0929   30.6868  -74.1105 H         1 UNK         0.0680 
     81 H81       -74.0110   31.3355  -70.7387 H         1 UNK         0.1032 
     82 H82       -74.5347   29.7872  -71.3003 H         1 UNK         0.1032 
     83 H83       -72.4471   31.5884  -72.6038 H         1 UNK         0.0461 
     84 H84       -71.4852   28.2720  -72.6682 H         1 UNK         0.3453 
     85 H85       -70.5205   28.3396  -71.2089 H         1 UNK         0.3453 
     86 H86       -73.8087   29.3248  -73.7893 H         1 UNK         0.2984 
     87 H87       -73.6901   29.1496  -75.9400 H         1 UNK         0.0554 
     88 H88       -72.8297   29.7588  -78.1430 H         1 UNK         0.0847 
     89 H89       -71.3027   30.3108  -77.4541 H         1 UNK         0.0847 
     90 H90       -72.7933   31.1805  -77.1146 H         1 UNK         0.0847 
     91 H91       -72.0083   27.7013  -77.2364 H         1 UNK         0.3141 
     92 H92       -70.6065   25.6772  -76.6410 H         1 UNK         0.0743 
     93 H93       -72.1258   24.4044  -74.3025 H         1 UNK         0.0784 
     94 H94       -71.0922   23.5412  -75.4398 H         1 UNK         0.0784 
     95 H95       -70.3993   24.7373  -74.3551 H         1 UNK         0.0784 
     96 H96       -73.3563   24.6474  -76.4215 H         1 UNK         0.3213 
     97 H97       -74.3078   25.9324  -79.6612 H         1 UNK         0.0855 
     98 H98       -74.2615   23.2017  -78.2679 H         1 UNK         0.0814 
     99 H99       -73.5592   23.5745  -79.8328 H         1 UNK         0.0814 
    100 H100      -75.3001   23.6543  -79.6166 H         1 UNK         0.0814 
    101 H101      -75.8934   24.9925  -77.4744 H         1 UNK         0.3105 
    102 H102      -76.5257   28.1971  -75.9983 H         1 UNK         0.0547 
    103 H103      -78.3241   26.3200  -77.6278 H         1 UNK         0.0837 
    104 H104      -78.8726   27.4207  -76.3701 H         1 UNK         0.0837 
    105 H105      -78.1717   28.0590  -77.8513 H         1 UNK         0.0837 
    106 H106      -77.4378   25.5232  -75.4402 H         1 UNK         0.3020 
    107 H107      -74.7660   24.5785  -73.3289 H         1 UNK         0.1245 
    108 H108      -77.5252   25.5831  -72.5253 H         1 UNK         0.0781 
    109 H109      -77.0700   23.9781  -72.0457 H         1 UNK         0.0781 
    110 H110      -77.7654   25.7820  -69.7393 H         1 UNK         0.0836 
    111 H111      -76.5240   26.8103  -69.0636 H         1 UNK         0.0836 
    112 H112      -77.2335   23.4045  -74.3052 H         1 UNK         0.3022 
    113 H113      -75.7486   21.6847  -76.9959 H         1 UNK         0.0747 
    114 H114      -76.4156   19.6479  -75.7481 H         1 UNK         0.0793 
    115 H115      -74.9411   20.3178  -75.0712 H         1 UNK         0.0793 
    116 H116      -76.4700   20.5566  -74.2367 H         1 UNK         0.0793 
    117 H117      -78.2956   21.4599  -75.6804 H         1 UNK         0.3047 
    118 H118      -79.9001   23.9002  -77.7930 H         1 UNK         0.0822 
    119 H119      -81.3590   21.9549  -78.0838 H         1 UNK         0.0807 
    120 H120      -80.2111   20.9019  -77.2582 H         1 UNK         0.0807 
    121 H121      -79.8047   21.6056  -78.8175 H         1 UNK         0.0807 
    122 H122      -81.2798   22.8086  -75.7895 H         1 UNK         0.2946 
    123 H123      -82.0545   24.2018  -74.1810 H         1 UNK         0.1144 
    124 H124      -81.4099   23.9732  -71.7709 H         1 UNK         0.0793 
    125 H125      -79.7019   24.0301  -72.2024 H         1 UNK         0.0793 
    126 H126      -80.6993   22.6772  -72.7191 H         1 UNK         0.0793 
    127 H127      -80.5095   26.2626  -72.8097 H         1 UNK         0.2896 
@<TRIPOS>BOND
     1    1    2 1    
     2    1   67 1    
     3    1   68 1    
     4    1   69 1    
     5    2    3 2    
     6    2    4 am   BACKBONE|DICT|INTERRES
     7    4    5 1    
     8    4   70 1    
     9    5    6 1    
    10    5   65 1    
    11    5   71 1    
    12    6    7 1    
    13    6   72 1    
    14    6   73 1    
    15    7    8 1    
    16    8    9 1    
    17    8   74 1    
    18    8   75 1    
    19    9   10 ar   
    20    9   14 ar   
    21   10   11 ar   
    22   10   76 1    
    23   11   12 ar   
    24   11   48 1    
    25   12   13 ar   
    26   12   77 1    
    27   13   14 ar   
    28   13   15 1    
    29   14   78 1    
    30   15   16 1    
    31   15   79 1    
    32   15   80 1    
    33   16   17 1    
    34   17   18 1    
    35   17   81 1    
    36   17   82 1    
    37   18   19 1    
    38   18   22 1    
    39   18   83 1    
    40   19   20 am   BACKBONE|DICT|INTERRES
    41   19   21 2    
    42   20   84 1    
    43   20   85 1    
    44   22   23 am   BACKBONE|DICT|INTERRES
    45   22   86 1    
    46   23   24 2    
    47   23   25 1    
    48   25   26 1    
    49   25   27 1    
    50   25   87 1    
    51   26   88 1    
    52   26   89 1    
    53   26   90 1    
    54   27   28 am   BACKBONE|DICT|INTERRES
    55   27   91 1    
    56   28   29 2    
    57   28   30 1    
    58   30   31 1    
    59   30   32 1    
    60   30   92 1    
    61   31   93 1    
    62   31   94 1    
    63   31   95 1    
    64   32   33 am   BACKBONE|DICT|INTERRES
    65   32   96 1    
    66   33   34 2    
    67   33   35 1    
    68   35   36 1    
    69   35   37 1    
    70   35   97 1    
    71   36   98 1    
    72   36   99 1    
    73   36  100 1    
    74   37   38 am   BACKBONE|DICT|INTERRES
    75   37  101 1    
    76   38   39 2    
    77   38   40 1    
    78   40   41 1    
    79   40   42 1    
    80   40  102 1    
    81   41  103 1    
    82   41  104 1    
    83   41  105 1    
    84   42   43 am   BACKBONE|DICT|INTERRES
    85   42  106 1    
    86   43   44 2    
    87   43   45 1    
    88   45   46 1    
    89   45   49 1    
    90   45  107 1    
    91   46   47 1    
    92   46  108 1    
    93   46  109 1    
    94   47   48 1    
    95   48  110 1    
    96   48  111 1    
    97   49   50 am   BACKBONE|DICT|INTERRES
    98   49  112 1    
    99   50   51 2    
   100   50   52 1    
   101   52   53 1    
   102   52   54 1    
   103   52  113 1    
   104   53  114 1    
   105   53  115 1    
   106   53  116 1    
   107   54   55 am   BACKBONE|DICT|INTERRES
   108   54  117 1    
   109   55   56 2    
   110   55   57 1    
   111   57   58 1    
   112   57   59 1    
   113   57  118 1    
   114   58  119 1    
   115   58  120 1    
   116   58  121 1    
   117   59   60 am   BACKBONE|DICT|INTERRES
   118   59  122 1    
   119   60   61 2    
   120   60   62 1    
   121   62   63 1    
   122   62   64 1    
   123   62  123 1    
   124   63  124 1    
   125   63  125 1    
   126   63  126 1    
   127   64   65 am   BACKBONE|DICT|INTERRES
   128   64  127 1    
   129   65   66 2    
@<TRIPOS>SUBSTRUCTURE
     1 UNK         1 GROUP             0       ****    0 ROOT    
