@<TRIPOS>MOLECULE
3R135
127   129    1
SMALL
USER_CHARGES


@<TRIPOS>ATOM
      1 CA        -83.7644   24.7292  -74.0992 C.3       0 UNK        -0.1998 
      2 C         -82.5924   25.6680  -73.8598 C.2       0 UNK         0.4909 
      3 O         -81.4457   25.2212  -73.8915 O.2       0 UNK        -0.5240 
      4 N         -82.8743   26.9608  -73.6353 N.am      1 UNK        -0.4739 
      5 CA        -81.9084   28.0437  -73.3991 C.3       1 UNK         0.0864 
      6 C6        -81.3113   27.9945  -71.9641 C.3       11 UNK        -0.0881 
      7 S7        -80.6533   29.6204  -71.4616 S.3       11 UNK        -0.2682 
      8 C8        -79.3985   29.1629  -70.2253 C.3       11 UNK         0.0289 
      9 C9        -78.1559   28.5272  -70.8375 C.ar      11 UNK        -0.0687 
     10 C10       -77.7724   27.2365  -70.4599 C.ar      11 UNK        -0.0823 
     11 C11       -76.5931   26.6743  -70.9553 C.ar      11 UNK        -0.0830 
     12 C12       -75.8060   27.4061  -71.8459 C.ar      11 UNK        -0.1021 
     13 C13       -76.1824   28.6876  -72.2537 C.ar      11 UNK        -0.0753 
     14 C14       -77.3588   29.2476  -71.7355 C.ar      11 UNK        -0.0933 
     15 C15       -75.2641   29.3977  -73.2460 C.3       11 UNK         0.0166 
     16 S16       -75.8058   31.0261  -73.8471 S.3       11 UNK        -0.2615 
     17 C17       -74.6285   31.2896  -75.2253 C.3       11 UNK        -0.0865 
     18 CA        -73.2355   31.8632  -74.8373 C.3       10 UNK         0.0862 
     19 C         -73.3274   33.1770  -74.0025 C.2       10 UNK         0.5551 
     20 N         -72.8500   33.2125  -72.7641 N.am      10 UNK        -0.7319 
     21 O         -73.8286   34.1837  -74.4976 O.2       10 UNK        -0.5018 
     22 N         -72.3335   30.8211  -74.3106 N.am      10 UNK        -0.4509 
     23 C         -71.0008   30.9306  -74.2255 C.2       10 UNK         0.4899 
     24 O         -70.3732   31.9300  -74.5762 O.2       10 UNK        -0.4839 
     25 CA        -70.2199   29.7208  -73.6794 C.3       9 UNK         0.0222 
     26 CB        -70.4394   29.5370  -72.1633 C.3       9 UNK        -0.1966 
     27 N         -70.4492   28.4807  -74.4358 N.am      9 UNK        -0.4218 
     28 C         -71.5637   27.7404  -74.4931 C.2       9 UNK         0.5020 
     29 O         -72.5769   27.9649  -73.8298 O.2       9 UNK        -0.5274 
     30 CA        -71.5450   26.5394  -75.4525 C.3       8 UNK         0.0270 
     31 CB        -71.2368   25.2443  -74.6852 C.3       8 UNK        -0.1976 
     32 N         -72.8277   26.3987  -76.1457 N.am      8 UNK        -0.4313 
     33 C         -73.3148   27.2886  -77.0245 C.2       8 UNK         0.5041 
     34 O         -72.6833   28.2760  -77.4073 O.2       8 UNK        -0.5577 
     35 CA        -74.7477   27.0587  -77.5473 C.3       7 UNK         0.0284 
     36 CB        -75.0033   27.7121  -78.9213 C.3       7 UNK        -0.1958 
     37 N         -75.1686   25.6546  -77.5504 N.am      7 UNK        -0.4454 
     38 C         -74.6073   24.6279  -78.2062 C.2       7 UNK         0.5089 
     39 O         -73.6590   24.7467  -78.9838 O.2       7 UNK        -0.5125 
     40 CA        -75.2001   23.2290  -77.9292 C.3       6 UNK         0.0408 
     41 CB        -74.1754   22.0993  -78.1631 C.3       6 UNK        -0.1791 
     42 N         -75.8155   23.0933  -76.6009 N.am      6 UNK        -0.4762 
     43 C         -75.2322   23.2807  -75.4028 C.2       6 UNK         0.5007 
     44 O         -74.0541   23.6159  -75.2732 O.2       6 UNK        -0.5032 
     45 CA        -76.1105   23.1035  -74.1441 C.3       5 UNK         0.0783 
     46 C46       -75.8483   24.2216  -73.1043 C.3       11 UNK        -0.0857 
     47 S47       -76.8216   23.9825  -71.5774 S.3       11 UNK        -0.2512 
     48 C48       -76.1492   25.2896  -70.5077 C.3       11 UNK         0.0225 
     49 N         -77.5268   23.0554  -74.5090 N.am      5 UNK        -0.4615 
     50 C         -78.3046   21.9683  -74.5052 C.2       4 UNK         0.5053 
     51 O         -77.9107   20.8435  -74.1964 O.2       4 UNK        -0.5105 
     52 CA        -79.7732   22.1646  -74.9251 C.3       4 UNK         0.0263 
     53 CB        -80.6931   22.0985  -73.6956 C.3       4 UNK        -0.1981 
     54 N         -80.0092   23.4219  -75.6476 N.am      4 UNK        -0.4224 
     55 C         -79.5829   23.6533  -76.8986 C.2       3 UNK         0.4895 
     56 O         -78.9562   22.8298  -77.5666 O.2       3 UNK        -0.5091 
     57 CA        -79.8583   25.0416  -77.4978 C.3       3 UNK         0.0250 
     58 CB        -81.3003   25.1235  -78.0234 C.3       3 UNK        -0.1996 
     59 N         -79.6133   26.1625  -76.5876 N.am      3 UNK        -0.4254 
     60 C         -78.4754   26.4385  -75.9383 C.2       2 UNK         0.5004 
     61 O         -77.4834   25.7112  -75.9604 O.2       2 UNK        -0.5226 
     62 CA        -78.4280   27.7374  -75.1141 C.3       2 UNK         0.0269 
     63 CB        -78.2034   28.9697  -76.0119 C.3       2 UNK        -0.1926 
     64 N         -79.5821   27.9171  -74.2245 N.am      2 UNK        -0.4687 
     65 C         -80.8704   28.1125  -74.5434 C.2       1 UNK         0.5165 
     66 O         -81.2729   28.2798  -75.6974 O.2       1 UNK        -0.5079 
     67 H67       -83.6628   24.2438  -75.0694 H         1 UNK         0.0900 
     68 H68       -83.7854   23.9557  -73.3321 H         1 UNK         0.0900 
     69 H69       -84.7194   25.2539  -74.0797 H         1 UNK         0.0900 
     70 H70       -83.8407   27.2556  -73.6612 H         1 UNK         0.2959 
     71 H71       -82.4900   28.9635  -73.4835 H         1 UNK         0.1079 
     72 H72       -80.5604   27.2093  -71.8593 H         1 UNK         0.0837 
     73 H73       -82.0960   27.7400  -71.2499 H         1 UNK         0.0837 
     74 H74       -79.8543   28.5044  -69.4841 H         1 UNK         0.0685 
     75 H75       -79.0977   30.0632  -69.6878 H         1 UNK         0.0685 
     76 H76       -78.3783   26.6754  -69.7613 H         1 UNK         0.1434 
     77 H77       -74.8896   26.9753  -72.2283 H         1 UNK         0.1329 
     78 H78       -77.6643   30.2449  -72.0178 H         1 UNK         0.1335 
     79 H79       -74.2965   29.5302  -72.7627 H         1 UNK         0.0680 
     80 H80       -75.1139   28.7420  -74.1051 H         1 UNK         0.0680 
     81 H81       -75.1109   31.9785  -75.9211 H         1 UNK         0.1032 
     82 H82       -74.5104   30.3620  -75.7883 H         1 UNK         0.1032 
     83 H83       -72.7784   32.1744  -75.7789 H         1 UNK         0.0461 
     84 H84       -72.9089   34.0675  -72.2343 H         1 UNK         0.3453 
     85 H85       -72.4389   32.3894  -72.3555 H         1 UNK         0.3453 
     86 H86       -72.7510   29.9401  -74.0292 H         1 UNK         0.2984 
     87 H87       -69.1612   29.9464  -73.8188 H         1 UNK         0.0554 
     88 H88       -69.8428   28.7118  -71.7747 H         1 UNK         0.0847 
     89 H89       -71.4823   29.3407  -71.9136 H         1 UNK         0.0847 
     90 H90       -70.1431   30.4343  -71.6186 H         1 UNK         0.0847 
     91 H91       -69.6840   28.2103  -75.0388 H         1 UNK         0.3141 
     92 H92       -70.7704   26.6933  -76.2066 H         1 UNK         0.0743 
     93 H93       -70.2682   25.3041  -74.1873 H         1 UNK         0.0784 
     94 H94       -71.2064   24.3839  -75.3542 H         1 UNK         0.0784 
     95 H95       -71.9868   25.0439  -73.9184 H         1 UNK         0.0784 
     96 H96       -73.3993   25.6044  -75.8815 H         1 UNK         0.3213 
     97 H97       -75.3940   27.5541  -76.8233 H         1 UNK         0.0855 
     98 H98       -74.3471   27.3036  -79.6903 H         1 UNK         0.0814 
     99 H99       -74.8290   28.7880  -78.8830 H         1 UNK         0.0814 
    100 H100      -76.0338   27.5646  -79.2444 H         1 UNK         0.0814 
    101 H101      -75.9629   25.4495  -76.9445 H         1 UNK         0.3105 
    102 H102      -76.0089   23.0975  -78.6494 H         1 UNK         0.0547 
    103 H103      -74.6153   21.1194  -77.9791 H         1 UNK         0.0837 
    104 H104      -73.3045   22.2040  -77.5152 H         1 UNK         0.0837 
    105 H105      -73.8159   22.1017  -79.1928 H         1 UNK         0.0837 
    106 H106      -76.8022   22.8651  -76.6064 H         1 UNK         0.3020 
    107 H107      -75.8080   22.1531  -73.6989 H         1 UNK         0.1245 
    108 H108      -76.0962   25.1951  -73.5306 H         1 UNK         0.0781 
    109 H109      -74.7918   24.2583  -72.8316 H         1 UNK         0.0781 
    110 H110      -75.0602   25.2242  -70.4875 H         1 UNK         0.0836 
    111 H111      -76.4802   25.1092  -69.4838 H         1 UNK         0.0836 
    112 H112      -77.9209   23.9367  -74.8149 H         1 UNK         0.3022 
    113 H113      -80.0353   21.3380  -75.5889 H         1 UNK         0.0747 
    114 H114      -81.7409   22.2065  -73.9759 H         1 UNK         0.0793 
    115 H115      -80.5913   21.1413  -73.1825 H         1 UNK         0.0793 
    116 H116      -80.4550   22.8808  -72.9736 H         1 UNK         0.0793 
    117 H117      -80.4938   24.1574  -75.1351 H         1 UNK         0.3047 
    118 H118      -79.1799   25.1673  -78.3441 H         1 UNK         0.0822 
    119 H119      -81.4746   26.0572  -78.5584 H         1 UNK         0.0807 
    120 H120      -82.0284   25.0614  -77.2135 H         1 UNK         0.0807 
    121 H121      -81.5118   24.3090  -78.7178 H         1 UNK         0.0807 
    122 H122      -80.3709   26.8301  -76.4688 H         1 UNK         0.2946 
    123 H123      -77.5621   27.6486  -74.4575 H         1 UNK         0.1144 
    124 H124      -78.1574   29.8838  -75.4203 H         1 UNK         0.0793 
    125 H125      -78.9951   29.0916  -76.7512 H         1 UNK         0.0793 
    126 H126      -77.2643   28.8927  -76.5585 H         1 UNK         0.0793 
    127 H127      -79.3738   27.7940  -73.2427 H         1 UNK         0.2896 
@<TRIPOS>BOND
     1    1    2 1    
     2    1   67 1    
     3    1   68 1    
     4    1   69 1    
     5    2    3 2    
     6    2    4 am   BACKBONE|DICT|INTERRES
     7    4    5 1    
     8    4   70 1    
     9    5    6 1    
    10    5   65 1    
    11    5   71 1    
    12    6    7 1    
    13    6   72 1    
    14    6   73 1    
    15    7    8 1    
    16    8    9 1    
    17    8   74 1    
    18    8   75 1    
    19    9   10 ar   
    20    9   14 ar   
    21   10   11 ar   
    22   10   76 1    
    23   11   12 ar   
    24   11   48 1    
    25   12   13 ar   
    26   12   77 1    
    27   13   14 ar   
    28   13   15 1    
    29   14   78 1    
    30   15   16 1    
    31   15   79 1    
    32   15   80 1    
    33   16   17 1    
    34   17   18 1    
    35   17   81 1    
    36   17   82 1    
    37   18   19 1    
    38   18   22 1    
    39   18   83 1    
    40   19   20 am   BACKBONE|DICT|INTERRES
    41   19   21 2    
    42   20   84 1    
    43   20   85 1    
    44   22   23 am   BACKBONE|DICT|INTERRES
    45   22   86 1    
    46   23   24 2    
    47   23   25 1    
    48   25   26 1    
    49   25   27 1    
    50   25   87 1    
    51   26   88 1    
    52   26   89 1    
    53   26   90 1    
    54   27   28 am   BACKBONE|DICT|INTERRES
    55   27   91 1    
    56   28   29 2    
    57   28   30 1    
    58   30   31 1    
    59   30   32 1    
    60   30   92 1    
    61   31   93 1    
    62   31   94 1    
    63   31   95 1    
    64   32   33 am   BACKBONE|DICT|INTERRES
    65   32   96 1    
    66   33   34 2    
    67   33   35 1    
    68   35   36 1    
    69   35   37 1    
    70   35   97 1    
    71   36   98 1    
    72   36   99 1    
    73   36  100 1    
    74   37   38 am   BACKBONE|DICT|INTERRES
    75   37  101 1    
    76   38   39 2    
    77   38   40 1    
    78   40   41 1    
    79   40   42 1    
    80   40  102 1    
    81   41  103 1    
    82   41  104 1    
    83   41  105 1    
    84   42   43 am   BACKBONE|DICT|INTERRES
    85   42  106 1    
    86   43   44 2    
    87   43   45 1    
    88   45   46 1    
    89   45   49 1    
    90   45  107 1    
    91   46   47 1    
    92   46  108 1    
    93   46  109 1    
    94   47   48 1    
    95   48  110 1    
    96   48  111 1    
    97   49   50 am   BACKBONE|DICT|INTERRES
    98   49  112 1    
    99   50   51 2    
   100   50   52 1    
   101   52   53 1    
   102   52   54 1    
   103   52  113 1    
   104   53  114 1    
   105   53  115 1    
   106   53  116 1    
   107   54   55 am   BACKBONE|DICT|INTERRES
   108   54  117 1    
   109   55   56 2    
   110   55   57 1    
   111   57   58 1    
   112   57   59 1    
   113   57  118 1    
   114   58  119 1    
   115   58  120 1    
   116   58  121 1    
   117   59   60 am   BACKBONE|DICT|INTERRES
   118   59  122 1    
   119   60   61 2    
   120   60   62 1    
   121   62   63 1    
   122   62   64 1    
   123   62  123 1    
   124   63  124 1    
   125   63  125 1    
   126   63  126 1    
   127   64   65 am   BACKBONE|DICT|INTERRES
   128   64  127 1    
   129   65   66 2    
@<TRIPOS>SUBSTRUCTURE
     1 UNK         1 GROUP             0       ****    0 ROOT    
