@<TRIPOS>MOLECULE
3R135
127   129    1
SMALL
USER_CHARGES


@<TRIPOS>ATOM
      1 CA        -81.1983   30.9662  -75.4007 C.3       0 UNK        -0.1998 
      2 C         -81.2185   29.5482  -74.8499 C.2       0 UNK         0.4909 
      3 O         -82.2581   28.8908  -74.9017 O.2       0 UNK        -0.5240 
      4 N         -80.0725   29.0795  -74.3323 N.am      1 UNK        -0.4739 
      5 CA        -79.8603   27.7561  -73.7154 C.3       1 UNK         0.0864 
      6 C6        -80.7130   27.5106  -72.4309 C.3       11 UNK        -0.0881 
      7 S7        -80.8161   28.9388  -71.2885 S.3       11 UNK        -0.2682 
      8 C8        -79.4493   28.6364  -70.1256 C.3       11 UNK         0.0289 
      9 C9        -78.0944   28.6996  -70.8136 C.ar      11 UNK        -0.0687 
     10 C10       -77.2970   27.5544  -70.8920 C.ar      11 UNK        -0.0823 
     11 C11       -76.0645   27.5971  -71.5474 C.ar      11 UNK        -0.0830 
     12 C12       -75.6372   28.7900  -72.1341 C.ar      11 UNK        -0.1021 
     13 C13       -76.4129   29.9479  -72.0447 C.ar      11 UNK        -0.0753 
     14 C14       -77.6406   29.8982  -71.3775 C.ar      11 UNK        -0.0933 
     15 C15       -75.9364   31.2376  -72.6994 C.3       11 UNK         0.0166 
     16 S16       -75.0589   32.3415  -71.5439 S.3       11 UNK        -0.2615 
     17 C17       -73.5517   31.4007  -71.1119 C.3       11 UNK        -0.0865 
     18 CA        -72.2927   31.8325  -71.9072 C.3       10 UNK         0.0862 
     19 C         -71.0309   31.1348  -71.3268 C.2       10 UNK         0.5551 
     20 N         -70.3436   31.7746  -70.3909 N.am      10 UNK        -0.7319 
     21 O         -70.7013   30.0052  -71.6839 O.2       10 UNK        -0.5018 
     22 N         -72.4428   31.5943  -73.3515 N.am      10 UNK        -0.4509 
     23 C         -71.5928   32.0262  -74.2905 C.2       10 UNK         0.4899 
     24 O         -70.6194   32.7443  -74.0538 O.2       10 UNK        -0.4839 
     25 CA        -71.8773   31.5677  -75.7340 C.3       9 UNK         0.0222 
     26 CB        -70.9608   32.2539  -76.7651 C.3       9 UNK        -0.1966 
     27 N         -71.7470   30.1146  -75.8774 N.am      9 UNK        -0.4218 
     28 C         -72.6890   29.2255  -75.5428 C.2       9 UNK         0.5020 
     29 O         -73.7675   29.5361  -75.0320 O.2       9 UNK        -0.5274 
     30 CA        -72.3675   27.7424  -75.7914 C.3       8 UNK         0.0270 
     31 CB        -71.8466   27.0849  -74.5032 C.3       8 UNK        -0.1976 
     32 N         -73.5635   27.0389  -76.2682 N.am      8 UNK        -0.4313 
     33 C         -74.0413   27.1687  -77.5141 C.2       8 UNK         0.5041 
     34 O         -73.4342   27.7617  -78.4098 O.2       8 UNK        -0.5577 
     35 CA        -75.4318   26.5651  -77.8037 C.3       7 UNK         0.0284 
     36 CB        -75.8540   26.7223  -79.2797 C.3       7 UNK        -0.1958 
     37 N         -75.6032   25.1674  -77.3947 N.am      7 UNK        -0.4454 
     38 C         -74.8460   24.1015  -77.7039 C.2       7 UNK         0.5089 
     39 O         -73.7783   24.1580  -78.3150 O.2       7 UNK        -0.5125 
     40 CA        -75.4232   22.7332  -77.2820 C.3       6 UNK         0.0408 
     41 CB        -74.3858   21.5901  -77.2779 C.3       6 UNK        -0.1791 
     42 N         -76.1733   22.8392  -76.0250 N.am      6 UNK        -0.4762 
     43 C         -75.6845   22.9737  -74.7837 C.2       6 UNK         0.5007 
     44 O         -74.5236   22.7184  -74.4635 O.2       6 UNK        -0.5032 
     45 CA        -76.6620   23.5328  -73.7243 C.3       5 UNK         0.0783 
     46 C46       -76.6410   25.0820  -73.6830 C.3       11 UNK        -0.0857 
     47 S47       -74.9988   25.7921  -73.3387 S.3       11 UNK        -0.2512 
     48 C48       -75.1855   26.3605  -71.6251 C.3       11 UNK         0.0225 
     49 N         -78.0265   23.0661  -73.9693 N.am      5 UNK        -0.4615 
     50 C         -78.5041   21.8689  -73.6105 C.2       4 UNK         0.5053 
     51 O         -77.8813   21.0556  -72.9279 O.2       4 UNK        -0.5105 
     52 CA        -79.9084   21.5127  -74.1291 C.3       4 UNK         0.0263 
     53 CB        -80.9926   22.0491  -73.1808 C.3       4 UNK        -0.1981 
     54 N         -80.1392   22.0248  -75.4838 N.am      4 UNK        -0.4224 
     55 C         -79.5202   21.5574  -76.5788 C.2       3 UNK         0.4895 
     56 O         -78.7764   20.5767  -76.5746 O.2       3 UNK        -0.5091 
     57 CA        -79.7390   22.3119  -77.9025 C.3       3 UNK         0.0250 
     58 CB        -80.7568   21.5665  -78.7811 C.3       3 UNK        -0.1996 
     59 N         -80.1671   23.7064  -77.7522 N.am      3 UNK        -0.4254 
     60 C         -79.4501   24.6936  -77.1973 C.2       2 UNK         0.5004 
     61 O         -78.3348   24.5264  -76.6994 O.2       2 UNK        -0.5226 
     62 CA        -80.0700   26.1048  -77.2149 C.3       2 UNK         0.0269 
     63 CB        -81.5979   26.1082  -77.4527 C.3       2 UNK        -0.1926 
     64 N         -79.7619   26.9072  -76.0242 N.am      2 UNK        -0.4687 
     65 C         -80.0010   26.5983  -74.7384 C.2       1 UNK         0.5165 
     66 O         -80.3417   25.4760  -74.3569 O.2       1 UNK        -0.5079 
     67 H67       -80.2190   31.4325  -75.2943 H         1 UNK         0.0900 
     68 H68       -81.9254   31.5824  -74.8725 H         1 UNK         0.0900 
     69 H69       -81.4594   30.9618  -76.4586 H         1 UNK         0.0900 
     70 H70       -79.2642   29.6856  -74.3174 H         1 UNK         0.2959 
     71 H71       -78.8119   27.7406  -73.4153 H         1 UNK         0.1079 
     72 H72       -81.7379   27.2573  -72.7086 H         1 UNK         0.0837 
     73 H73       -80.3327   26.6454  -71.8848 H         1 UNK         0.0837 
     74 H74       -79.4830   29.3904  -69.3381 H         1 UNK         0.0685 
     75 H75       -79.6010   27.6732  -69.6361 H         1 UNK         0.0685 
     76 H76       -77.6383   26.6291  -70.4481 H         1 UNK         0.1434 
     77 H77       -74.6946   28.8119  -72.6638 H         1 UNK         0.1329 
     78 H78       -78.2542   30.7866  -71.3135 H         1 UNK         0.1335 
     79 H79       -75.2948   31.0203  -73.5523 H         1 UNK         0.0680 
     80 H80       -76.7949   31.7749  -73.1047 H         1 UNK         0.0680 
     81 H81       -73.7177   30.3303  -71.2120 H         1 UNK         0.1032 
     82 H82       -73.3864   31.5630  -70.0449 H         1 UNK         0.1032 
     83 H83       -72.1689   32.9096  -71.7759 H         1 UNK         0.0461 
     84 H84       -70.6116   32.6976  -70.0856 H         1 UNK         0.3453 
     85 H85       -69.5316   31.3314  -69.9902 H         1 UNK         0.3453 
     86 H86       -73.1775   30.9584  -73.6391 H         1 UNK         0.2984 
     87 H87       -72.9045   31.8562  -75.9681 H         1 UNK         0.0554 
     88 H88       -71.2223   31.9648  -77.7832 H         1 UNK         0.0847 
     89 H89       -69.9108   32.0059  -76.6047 H         1 UNK         0.0847 
     90 H90       -71.0516   33.3395  -76.7065 H         1 UNK         0.0847 
     91 H91       -70.8705   29.7766  -76.2491 H         1 UNK         0.3141 
     92 H92       -71.5905   27.6626  -76.5548 H         1 UNK         0.0743 
     93 H93       -72.5190   27.2516  -73.6614 H         1 UNK         0.0784 
     94 H94       -71.7166   26.0093  -74.6252 H         1 UNK         0.0784 
     95 H95       -70.8781   27.5004  -74.2219 H         1 UNK         0.0784 
     96 H96       -74.1265   26.5738  -75.5686 H         1 UNK         0.3213 
     97 H97       -76.1359   27.1427  -77.2023 H         1 UNK         0.0855 
     98 H98       -75.8377   27.7695  -79.5843 H         1 UNK         0.0814 
     99 H99       -76.8671   26.3551  -79.4440 H         1 UNK         0.0814 
    100 H100      -75.1867   26.1770  -79.9482 H         1 UNK         0.0814 
    101 H101      -76.4855   24.9696  -76.9302 H         1 UNK         0.3105 
    102 H102      -76.1674   22.4818  -78.0389 H         1 UNK         0.0547 
    103 H103      -74.0122   21.4059  -78.2857 H         1 UNK         0.0837 
    104 H104      -73.5209   21.8230  -76.6567 H         1 UNK         0.0837 
    105 H105      -74.8216   20.6584  -76.9177 H         1 UNK         0.0837 
    106 H106      -77.1452   23.1058  -76.1487 H         1 UNK         0.3020 
    107 H107      -76.3332   23.1605  -72.7510 H         1 UNK         0.1245 
    108 H108      -77.3511   25.4368  -72.9351 H         1 UNK         0.0781 
    109 H109      -76.9846   25.4980  -74.6308 H         1 UNK         0.0781 
    110 H110      -74.1997   26.5992  -71.2236 H         1 UNK         0.0836 
    111 H111      -75.5801   25.5493  -71.0110 H         1 UNK         0.0836 
    112 H112      -78.6169   23.6763  -74.5211 H         1 UNK         0.3022 
    113 H113      -79.9875   20.4236  -74.1569 H         1 UNK         0.0747 
    114 H114      -81.9888   21.7511  -73.5082 H         1 UNK         0.0793 
    115 H115      -80.8539   21.6591  -72.1715 H         1 UNK         0.0793 
    116 H116      -80.9725   23.1375  -73.1144 H         1 UNK         0.0793 
    117 H117      -80.7309   22.8390  -75.5720 H         1 UNK         0.3047 
    118 H118      -78.7803   22.3201  -78.4256 H         1 UNK         0.0822 
    119 H119      -80.8478   22.0287  -79.7642 H         1 UNK         0.0807 
    120 H120      -81.7472   21.5471  -78.3244 H         1 UNK         0.0807 
    121 H121      -80.4517   20.5312  -78.9407 H         1 UNK         0.0807 
    122 H122      -81.0751   23.9370  -78.1294 H         1 UNK         0.2946 
    123 H123      -79.6019   26.6179  -78.0565 H         1 UNK         0.1144 
    124 H124      -81.8580   25.6957  -78.4282 H         1 UNK         0.0793 
    125 H125      -81.9939   27.1240  -77.4298 H         1 UNK         0.0793 
    126 H126      -82.1289   25.5360  -76.6904 H         1 UNK         0.0793 
    127 H127      -79.4476   27.8489  -76.2101 H         1 UNK         0.2896 
@<TRIPOS>BOND
     1    1    2 1    
     2    1   67 1    
     3    1   68 1    
     4    1   69 1    
     5    2    3 2    
     6    2    4 am   BACKBONE|DICT|INTERRES
     7    4    5 1    
     8    4   70 1    
     9    5    6 1    
    10    5   65 1    
    11    5   71 1    
    12    6    7 1    
    13    6   72 1    
    14    6   73 1    
    15    7    8 1    
    16    8    9 1    
    17    8   74 1    
    18    8   75 1    
    19    9   10 ar   
    20    9   14 ar   
    21   10   11 ar   
    22   10   76 1    
    23   11   12 ar   
    24   11   48 1    
    25   12   13 ar   
    26   12   77 1    
    27   13   14 ar   
    28   13   15 1    
    29   14   78 1    
    30   15   16 1    
    31   15   79 1    
    32   15   80 1    
    33   16   17 1    
    34   17   18 1    
    35   17   81 1    
    36   17   82 1    
    37   18   19 1    
    38   18   22 1    
    39   18   83 1    
    40   19   20 am   BACKBONE|DICT|INTERRES
    41   19   21 2    
    42   20   84 1    
    43   20   85 1    
    44   22   23 am   BACKBONE|DICT|INTERRES
    45   22   86 1    
    46   23   24 2    
    47   23   25 1    
    48   25   26 1    
    49   25   27 1    
    50   25   87 1    
    51   26   88 1    
    52   26   89 1    
    53   26   90 1    
    54   27   28 am   BACKBONE|DICT|INTERRES
    55   27   91 1    
    56   28   29 2    
    57   28   30 1    
    58   30   31 1    
    59   30   32 1    
    60   30   92 1    
    61   31   93 1    
    62   31   94 1    
    63   31   95 1    
    64   32   33 am   BACKBONE|DICT|INTERRES
    65   32   96 1    
    66   33   34 2    
    67   33   35 1    
    68   35   36 1    
    69   35   37 1    
    70   35   97 1    
    71   36   98 1    
    72   36   99 1    
    73   36  100 1    
    74   37   38 am   BACKBONE|DICT|INTERRES
    75   37  101 1    
    76   38   39 2    
    77   38   40 1    
    78   40   41 1    
    79   40   42 1    
    80   40  102 1    
    81   41  103 1    
    82   41  104 1    
    83   41  105 1    
    84   42   43 am   BACKBONE|DICT|INTERRES
    85   42  106 1    
    86   43   44 2    
    87   43   45 1    
    88   45   46 1    
    89   45   49 1    
    90   45  107 1    
    91   46   47 1    
    92   46  108 1    
    93   46  109 1    
    94   47   48 1    
    95   48  110 1    
    96   48  111 1    
    97   49   50 am   BACKBONE|DICT|INTERRES
    98   49  112 1    
    99   50   51 2    
   100   50   52 1    
   101   52   53 1    
   102   52   54 1    
   103   52  113 1    
   104   53  114 1    
   105   53  115 1    
   106   53  116 1    
   107   54   55 am   BACKBONE|DICT|INTERRES
   108   54  117 1    
   109   55   56 2    
   110   55   57 1    
   111   57   58 1    
   112   57   59 1    
   113   57  118 1    
   114   58  119 1    
   115   58  120 1    
   116   58  121 1    
   117   59   60 am   BACKBONE|DICT|INTERRES
   118   59  122 1    
   119   60   61 2    
   120   60   62 1    
   121   62   63 1    
   122   62   64 1    
   123   62  123 1    
   124   63  124 1    
   125   63  125 1    
   126   63  126 1    
   127   64   65 am   BACKBONE|DICT|INTERRES
   128   64  127 1    
   129   65   66 2    
@<TRIPOS>SUBSTRUCTURE
     1 UNK         1 GROUP             0       ****    0 ROOT    
