@<TRIPOS>MOLECULE
3R135
127   129    1
SMALL
USER_CHARGES


@<TRIPOS>ATOM
      1 CA        -85.5260   28.1126  -70.9545 C.3       0 UNK        -0.1998 
      2 C         -84.7185   28.6775  -72.1134 C.2       0 UNK         0.4909 
      3 O         -85.2991   29.1431  -73.0944 O.2       0 UNK        -0.5240 
      4 N         -83.3831   28.6422  -72.0075 N.am      1 UNK        -0.4739 
      5 CA        -82.4496   29.1179  -73.0378 C.3       1 UNK         0.0864 
      6 C6        -81.0280   29.3130  -72.4499 C.3       11 UNK        -0.0881 
      7 S7        -80.0386   30.5332  -73.3788 S.3       11 UNK        -0.2682 
      8 C8        -78.7337   29.4890  -74.1104 C.3       11 UNK         0.0289 
      9 C9        -77.7802   28.9308  -73.0600 C.ar      11 UNK        -0.0687 
     10 C10       -77.6487   27.5507  -72.8847 C.ar      11 UNK        -0.0823 
     11 C11       -76.8108   27.0359  -71.8909 C.ar      11 UNK        -0.0830 
     12 C12       -76.0865   27.9178  -71.0805 C.ar      11 UNK        -0.1021 
     13 C13       -76.1956   29.3028  -71.2496 C.ar      11 UNK        -0.0753 
     14 C14       -77.0440   29.7977  -72.2481 C.ar      11 UNK        -0.0933 
     15 C15       -75.4679   30.2341  -70.2784 C.3       11 UNK         0.0166 
     16 S16       -75.0519   31.8824  -70.9538 S.3       11 UNK        -0.2615 
     17 C17       -73.3005   31.7040  -71.4311 C.3       11 UNK        -0.0865 
     18 CA        -73.0949   31.4879  -72.9521 C.3       10 UNK         0.0862 
     19 C         -71.5928   31.6832  -73.3155 C.2       10 UNK         0.5551 
     20 N         -70.8260   30.6296  -73.5689 N.am      10 UNK        -0.7319 
     21 O         -71.1179   32.8152  -73.3631 O.2       10 UNK        -0.5018 
     22 N         -73.6646   30.2054  -73.3908 N.am      10 UNK        -0.4509 
     23 C         -73.8219   29.8262  -74.6637 C.2       10 UNK         0.4899 
     24 O         -73.6261   30.5555  -75.6376 O.2       10 UNK        -0.4839 
     25 CA        -74.2232   28.3568  -74.8775 C.3       9 UNK         0.0222 
     26 CB        -75.3866   28.2304  -75.8753 C.3       9 UNK        -0.1966 
     27 N         -73.0928   27.5465  -75.3453 N.am      9 UNK        -0.4218 
     28 C         -71.9317   27.3761  -74.6899 C.2       9 UNK         0.5020 
     29 O         -71.7038   27.8606  -73.5802 O.2       9 UNK        -0.5274 
     30 CA        -70.8324   26.5218  -75.3488 C.3       8 UNK         0.0270 
     31 CB        -70.4010   25.3685  -74.4250 C.3       8 UNK        -0.1976 
     32 N         -71.2221   25.9785  -76.6524 N.am      8 UNK        -0.4313 
     33 C         -71.0461   26.6152  -77.8199 C.2       8 UNK         0.5041 
     34 O         -70.5188   27.7241  -77.9144 O.2       8 UNK        -0.5577 
     35 CA        -71.5331   25.9172  -79.1055 C.3       7 UNK         0.0284 
     36 CB        -70.3416   25.3325  -79.8821 C.3       7 UNK        -0.1958 
     37 N         -72.5222   24.8590  -78.8830 N.am      7 UNK        -0.4454 
     38 C         -73.7590   25.0512  -78.4069 C.2       7 UNK         0.5089 
     39 O         -74.2043   26.1593  -78.1058 O.2       7 UNK        -0.5125 
     40 CA        -74.6361   23.8036  -78.1776 C.3       6 UNK         0.0408 
     41 CB        -73.9970   22.4754  -78.6427 C.3       6 UNK        -0.1791 
     42 N         -75.0613   23.6964  -76.7781 N.am      6 UNK        -0.4762 
     43 C         -74.2707   23.6901  -75.6906 C.2       6 UNK         0.5007 
     44 O         -73.0414   23.7406  -75.7538 O.2       6 UNK        -0.5032 
     45 CA        -74.9432   23.6370  -74.2994 C.3       5 UNK         0.0783 
     46 C46       -74.7076   24.9602  -73.5314 C.3       11 UNK        -0.0857 
     47 S47       -75.0865   24.8227  -71.7550 S.3       11 UNK        -0.2512 
     48 C48       -76.7619   25.5321  -71.6399 C.3       11 UNK         0.0225 
     49 N         -76.3738   23.3369  -74.3910 N.am      5 UNK        -0.4615 
     50 C         -76.9056   22.1198  -74.5523 C.2       4 UNK         0.5053 
     51 O         -76.2510   21.0777  -74.5600 O.2       4 UNK        -0.5105 
     52 CA        -78.4289   22.0683  -74.7708 C.3       4 UNK         0.0263 
     53 CB        -79.1557   21.8205  -73.4394 C.3       4 UNK        -0.1981 
     54 N         -78.9619   23.2885  -75.3887 N.am      4 UNK        -0.4224 
     55 C         -78.6970   23.7114  -76.6321 C.2       3 UNK         0.4895 
     56 O         -77.9794   23.0854  -77.4123 O.2       3 UNK        -0.5091 
     57 CA        -79.2930   25.0705  -77.0619 C.3       3 UNK         0.0250 
     58 CB        -79.2307   25.2824  -78.5864 C.3       3 UNK        -0.1996 
     59 N         -80.6708   25.2938  -76.6058 N.am      3 UNK        -0.4254 
     60 C         -81.0300   25.6008  -75.3538 C.2       2 UNK         0.5004 
     61 O         -80.2363   25.6372  -74.4100 O.2       2 UNK        -0.5226 
     62 CA        -82.5219   25.8613  -75.0973 C.3       2 UNK         0.0269 
     63 CB        -83.2173   24.5754  -74.6223 C.3       2 UNK        -0.1926 
     64 N         -82.6862   26.8996  -74.0797 N.am      2 UNK        -0.4687 
     65 C         -82.4219   28.1991  -74.2797 C.2       1 UNK         0.5165 
     66 O         -82.1654   28.6746  -75.3873 O.2       1 UNK        -0.5079 
     67 H67       -86.1498   27.2882  -71.2990 H         1 UNK         0.0900 
     68 H68       -86.1765   28.8825  -70.5404 H         1 UNK         0.0900 
     69 H69       -84.8867   27.7424  -70.1532 H         1 UNK         0.0900 
     70 H70       -82.9629   28.2553  -71.1739 H         1 UNK         0.2959 
     71 H71       -82.8179   30.0906  -73.3731 H         1 UNK         0.1079 
     72 H72       -81.0966   29.6965  -71.4306 H         1 UNK         0.0837 
     73 H73       -80.4963   28.3626  -72.3681 H         1 UNK         0.0837 
     74 H74       -79.1976   28.6871  -74.6879 H         1 UNK         0.0685 
     75 H75       -78.1655   30.0920  -74.8194 H         1 UNK         0.0685 
     76 H76       -78.2263   26.8780  -73.5020 H         1 UNK         0.1434 
     77 H77       -75.4601   27.5203  -70.2932 H         1 UNK         0.1329 
     78 H78       -77.1691   30.8633  -72.3781 H         1 UNK         0.1335 
     79 H79       -76.1201   30.3837  -69.4172 H         1 UNK         0.0680 
     80 H80       -74.5677   29.7541  -69.8924 H         1 UNK         0.0680 
     81 H81       -72.8025   32.6217  -71.1106 H         1 UNK         0.1032 
     82 H82       -72.8286   30.9027  -70.8600 H         1 UNK         0.1032 
     83 H83       -73.6391   32.2746  -73.4784 H         1 UNK         0.0461 
     84 H84       -71.2059   29.6882  -73.5167 H         1 UNK         0.3453 
     85 H85       -69.8559   30.7693  -73.8008 H         1 UNK         0.3453 
     86 H86       -73.8369   29.5280  -72.6628 H         1 UNK         0.2984 
     87 H87       -74.5551   27.9525  -73.9197 H         1 UNK         0.0554 
     88 H88       -75.7431   27.2031  -75.9480 H         1 UNK         0.0847 
     89 H89       -76.2310   28.8464  -75.5695 H         1 UNK         0.0847 
     90 H90       -75.0965   28.5535  -76.8759 H         1 UNK         0.0847 
     91 H91       -73.1905   27.1323  -76.2638 H         1 UNK         0.3141 
     92 H92       -69.9661   27.1737  -75.4796 H         1 UNK         0.0743 
     93 H93       -69.9936   25.7514  -73.4884 H         1 UNK         0.0784 
     94 H94       -71.2347   24.7156  -74.1684 H         1 UNK         0.0784 
     95 H95       -69.6250   24.7577  -74.8866 H         1 UNK         0.0784 
     96 H96       -71.7033   25.0841  -76.6387 H         1 UNK         0.3213 
     97 H97       -72.0025   26.6834  -79.7265 H         1 UNK         0.0855 
     98 H98       -69.5993   26.1030  -80.0963 H         1 UNK         0.0814 
     99 H99       -70.6557   24.9154  -80.8391 H         1 UNK         0.0814 
    100 H100      -69.8392   24.5452  -79.3187 H         1 UNK         0.0814 
    101 H101      -72.2275   23.9134  -79.0794 H         1 UNK         0.3105 
    102 H102      -75.5426   23.9579  -78.7646 H         1 UNK         0.0547 
    103 H103      -73.7486   22.5037  -79.7045 H         1 UNK         0.0837 
    104 H104      -73.0887   22.2348  -78.0891 H         1 UNK         0.0837 
    105 H105      -74.6902   21.6454  -78.5050 H         1 UNK         0.0837 
    106 H106      -76.0623   23.6189  -76.6470 H         1 UNK         0.3020 
    107 H107      -74.4490   22.8289  -73.7546 H         1 UNK         0.1245 
    108 H108      -73.6615   25.2622  -73.5935 H         1 UNK         0.0781 
    109 H109      -75.2875   25.7701  -73.9730 H         1 UNK         0.0781 
    110 H110      -77.1461   25.3405  -70.6371 H         1 UNK         0.0836 
    111 H111      -77.4269   24.9982  -72.3195 H         1 UNK         0.0836 
    112 H112      -76.9975   24.1289  -74.3873 H         1 UNK         0.3022 
    113 H113      -78.6378   21.2318  -75.4410 H         1 UNK         0.0747 
    114 H114      -80.2297   21.7080  -73.5890 H         1 UNK         0.0793 
    115 H115      -78.7982   20.9061  -72.9636 H         1 UNK         0.0793 
    116 H116      -78.9988   22.6383  -72.7346 H         1 UNK         0.0793 
    117 H117      -79.5231   23.9018  -74.8036 H         1 UNK         0.3047 
    118 H118      -78.6624   25.8361  -76.6041 H         1 UNK         0.0822 
    119 H119      -79.6075   26.2662  -78.8670 H         1 UNK         0.0807 
    120 H120      -79.8147   24.5324  -79.1213 H         1 UNK         0.0807 
    121 H121      -78.2045   25.2192  -78.9516 H         1 UNK         0.0807 
    122 H122      -81.3880   25.2307  -77.3146 H         1 UNK         0.2946 
    123 H123      -82.9922   26.2009  -76.0232 H         1 UNK         0.1144 
    124 H124      -84.2798   24.7418  -74.4437 H         1 UNK         0.0793 
    125 H125      -82.7771   24.1946  -73.6995 H         1 UNK         0.0793 
    126 H126      -83.1355   23.7867  -75.3714 H         1 UNK         0.0793 
    127 H127      -82.8694   26.5897  -73.1369 H         1 UNK         0.2896 
@<TRIPOS>BOND
     1    1    2 1    
     2    1   67 1    
     3    1   68 1    
     4    1   69 1    
     5    2    3 2    
     6    2    4 am   BACKBONE|DICT|INTERRES
     7    4    5 1    
     8    4   70 1    
     9    5    6 1    
    10    5   65 1    
    11    5   71 1    
    12    6    7 1    
    13    6   72 1    
    14    6   73 1    
    15    7    8 1    
    16    8    9 1    
    17    8   74 1    
    18    8   75 1    
    19    9   10 ar   
    20    9   14 ar   
    21   10   11 ar   
    22   10   76 1    
    23   11   12 ar   
    24   11   48 1    
    25   12   13 ar   
    26   12   77 1    
    27   13   14 ar   
    28   13   15 1    
    29   14   78 1    
    30   15   16 1    
    31   15   79 1    
    32   15   80 1    
    33   16   17 1    
    34   17   18 1    
    35   17   81 1    
    36   17   82 1    
    37   18   19 1    
    38   18   22 1    
    39   18   83 1    
    40   19   20 am   BACKBONE|DICT|INTERRES
    41   19   21 2    
    42   20   84 1    
    43   20   85 1    
    44   22   23 am   BACKBONE|DICT|INTERRES
    45   22   86 1    
    46   23   24 2    
    47   23   25 1    
    48   25   26 1    
    49   25   27 1    
    50   25   87 1    
    51   26   88 1    
    52   26   89 1    
    53   26   90 1    
    54   27   28 am   BACKBONE|DICT|INTERRES
    55   27   91 1    
    56   28   29 2    
    57   28   30 1    
    58   30   31 1    
    59   30   32 1    
    60   30   92 1    
    61   31   93 1    
    62   31   94 1    
    63   31   95 1    
    64   32   33 am   BACKBONE|DICT|INTERRES
    65   32   96 1    
    66   33   34 2    
    67   33   35 1    
    68   35   36 1    
    69   35   37 1    
    70   35   97 1    
    71   36   98 1    
    72   36   99 1    
    73   36  100 1    
    74   37   38 am   BACKBONE|DICT|INTERRES
    75   37  101 1    
    76   38   39 2    
    77   38   40 1    
    78   40   41 1    
    79   40   42 1    
    80   40  102 1    
    81   41  103 1    
    82   41  104 1    
    83   41  105 1    
    84   42   43 am   BACKBONE|DICT|INTERRES
    85   42  106 1    
    86   43   44 2    
    87   43   45 1    
    88   45   46 1    
    89   45   49 1    
    90   45  107 1    
    91   46   47 1    
    92   46  108 1    
    93   46  109 1    
    94   47   48 1    
    95   48  110 1    
    96   48  111 1    
    97   49   50 am   BACKBONE|DICT|INTERRES
    98   49  112 1    
    99   50   51 2    
   100   50   52 1    
   101   52   53 1    
   102   52   54 1    
   103   52  113 1    
   104   53  114 1    
   105   53  115 1    
   106   53  116 1    
   107   54   55 am   BACKBONE|DICT|INTERRES
   108   54  117 1    
   109   55   56 2    
   110   55   57 1    
   111   57   58 1    
   112   57   59 1    
   113   57  118 1    
   114   58  119 1    
   115   58  120 1    
   116   58  121 1    
   117   59   60 am   BACKBONE|DICT|INTERRES
   118   59  122 1    
   119   60   61 2    
   120   60   62 1    
   121   62   63 1    
   122   62   64 1    
   123   62  123 1    
   124   63  124 1    
   125   63  125 1    
   126   63  126 1    
   127   64   65 am   BACKBONE|DICT|INTERRES
   128   64  127 1    
   129   65   66 2    
@<TRIPOS>SUBSTRUCTURE
     1 UNK         1 GROUP             0       ****    0 ROOT    
