@<TRIPOS>MOLECULE
3R135
127   129    1
SMALL
USER_CHARGES


@<TRIPOS>ATOM
      1 CA        -74.5087   24.1352  -69.5460 C.3       0 UNK        -0.1998 
      2 C         -76.0221   24.2242  -69.6704 C.2       0 UNK         0.4909 
      3 O         -76.7364   23.5801  -68.9015 O.2       0 UNK        -0.5240 
      4 N         -76.5132   25.0178  -70.6282 N.am      1 UNK        -0.4739 
      5 CA        -77.9376   25.1771  -70.9300 C.3       1 UNK         0.0864 
      6 C6        -78.2559   26.5794  -71.5073 C.3       11 UNK        -0.0881 
      7 S7        -78.0954   27.8613  -70.2202 S.3       11 UNK        -0.2682 
      8 C8        -79.4682   28.9859  -70.6259 C.3       11 UNK         0.0289 
      9 C9        -79.0611   30.0150  -71.6701 C.ar      11 UNK        -0.0687 
     10 C10       -79.5153   29.9234  -72.9896 C.ar      11 UNK        -0.0823 
     11 C11       -79.1609   30.8961  -73.9344 C.ar      11 UNK        -0.0830 
     12 C12       -78.3457   31.9646  -73.5454 C.ar      11 UNK        -0.1021 
     13 C13       -77.8880   32.0651  -72.2281 C.ar      11 UNK        -0.0753 
     14 C14       -78.2499   31.0889  -71.2975 C.ar      11 UNK        -0.0933 
     15 C15       -77.0222   33.2354  -71.7899 C.3       11 UNK         0.0166 
     16 S16       -75.2858   32.7364  -71.5812 S.3       11 UNK        -0.2615 
     17 C17       -74.7083   32.6837  -73.3115 C.3       11 UNK        -0.0865 
     18 CA        -74.7573   31.2746  -73.9607 C.3       10 UNK         0.0862 
     19 C         -74.2052   31.3612  -75.4101 C.2       10 UNK         0.5551 
     20 N         -72.9361   31.0466  -75.6379 N.am      10 UNK        -0.7319 
     21 O         -74.9332   31.7303  -76.3272 O.2       10 UNK        -0.5018 
     22 N         -74.1175   30.2505  -73.1177 N.am      10 UNK        -0.4509 
     23 C         -74.1975   28.9300  -73.3212 C.2       10 UNK         0.4899 
     24 O         -74.8087   28.4169  -74.2607 O.2       10 UNK        -0.4839 
     25 CA        -73.4685   28.0602  -72.2792 C.3       9 UNK         0.0222 
     26 CB        -74.2998   27.9367  -70.9869 C.3       9 UNK        -0.1966 
     27 N         -73.0527   26.7447  -72.7895 N.am      9 UNK        -0.4218 
     28 C         -73.8157   25.6939  -73.1216 C.2       9 UNK         0.5020 
     29 O         -75.0406   25.6334  -72.9876 O.2       9 UNK        -0.5274 
     30 CA        -73.0832   24.4967  -73.7320 C.3       8 UNK         0.0270 
     31 CB        -73.4205   23.1797  -73.0055 C.3       8 UNK        -0.1976 
     32 N         -73.4759   24.4534  -75.1345 N.am      8 UNK        -0.4313 
     33 C         -72.7834   23.8845  -76.1293 C.2       8 UNK         0.5041 
     34 O         -71.7993   23.1634  -75.9609 O.2       8 UNK        -0.5577 
     35 CA        -73.2296   24.2364  -77.5606 C.3       7 UNK         0.0284 
     36 CB        -74.3394   23.2918  -78.0473 C.3       7 UNK        -0.1958 
     37 N         -73.6655   25.6371  -77.6464 N.am      7 UNK        -0.4454 
     38 C         -72.8063   26.6705  -77.6402 C.2       7 UNK         0.5089 
     39 O         -71.5867   26.5296  -77.7413 O.2       7 UNK        -0.5125 
     40 CA        -73.3535   28.0920  -77.4178 C.3       6 UNK         0.0408 
     41 CB        -73.0054   29.0406  -78.5846 C.3       6 UNK        -0.1791 
     42 N         -74.7704   28.1429  -77.0365 N.am      6 UNK        -0.4762 
     43 C         -75.8463   28.0507  -77.8254 C.2       6 UNK         0.5007 
     44 O         -75.7985   28.0002  -79.0570 O.2       6 UNK        -0.5032 
     45 CA        -77.2116   27.9532  -77.1130 C.3       5 UNK         0.0783 
     46 C46       -77.8502   29.3481  -76.8960 C.3       11 UNK        -0.0857 
     47 S47       -79.5154   29.2228  -76.1563 S.3       11 UNK        -0.2512 
     48 C48       -79.7182   30.8449  -75.3534 C.3       11 UNK         0.0225 
     49 N         -78.0883   27.0458  -77.8616 N.am      5 UNK        -0.4615 
     50 C         -77.8838   25.7297  -77.9609 C.2       4 UNK         0.5053 
     51 O         -76.9603   25.1381  -77.3970 O.2       4 UNK        -0.5105 
     52 CA        -78.8610   24.9382  -78.8335 C.3       4 UNK         0.0263 
     53 CB        -78.1552   24.3907  -80.0851 C.3       4 UNK        -0.1981 
     54 N         -79.3412   23.8297  -78.0202 N.am      4 UNK        -0.4224 
     55 C         -80.6107   23.6377  -77.6451 C.2       3 UNK         0.4895 
     56 O         -81.5702   24.2495  -78.1167 O.2       3 UNK        -0.5091 
     57 CA        -80.8550   22.6009  -76.5312 C.3       3 UNK         0.0250 
     58 CB        -81.2773   21.2521  -77.1364 C.3       3 UNK        -0.1996 
     59 N         -79.7065   22.3924  -75.6381 N.am      3 UNK        -0.4254 
     60 C         -79.1556   23.3314  -74.8534 C.2       2 UNK         0.5004 
     61 O         -79.5529   24.4979  -74.7986 O.2       2 UNK        -0.5226 
     62 CA        -77.9353   22.8832  -74.0245 C.3       2 UNK         0.0269 
     63 CB        -76.7015   22.7093  -74.9258 C.3       2 UNK        -0.1926 
     64 N         -77.6056   23.8182  -72.9442 N.am      2 UNK        -0.4687 
     65 C         -78.3959   24.0667  -71.8892 C.2       1 UNK         0.5165 
     66 O         -79.4352   23.4485  -71.6498 O.2       1 UNK        -0.5079 
     67 H67       -74.0021   24.7956  -70.2480 H         1 UNK         0.0900 
     68 H68       -74.1766   23.1150  -69.7355 H         1 UNK         0.0900 
     69 H69       -74.1988   24.4133  -68.5391 H         1 UNK         0.0900 
     70 H70       -75.8822   25.4589  -71.2922 H         1 UNK         0.2959 
     71 H71       -78.5139   25.0541  -70.0097 H         1 UNK         0.1079 
     72 H72       -77.5932   26.8252  -72.3400 H         1 UNK         0.0837 
     73 H73       -79.2707   26.6053  -71.9090 H         1 UNK         0.0837 
     74 H74       -80.3437   28.4204  -70.9479 H         1 UNK         0.0685 
     75 H75       -79.7678   29.5064  -69.7150 H         1 UNK         0.0685 
     76 H76       -80.1582   29.1035  -73.2792 H         1 UNK         0.1434 
     77 H77       -78.0772   32.7274  -74.2636 H         1 UNK         0.1329 
     78 H78       -77.8984   31.1654  -70.2774 H         1 UNK         0.1335 
     79 H79       -77.3922   33.6166  -70.8370 H         1 UNK         0.0680 
     80 H80       -77.0932   34.0652  -72.4948 H         1 UNK         0.0680 
     81 H81       -73.6846   33.0634  -73.3194 H         1 UNK         0.1032 
     82 H82       -75.2886   33.3940  -73.9037 H         1 UNK         0.1032 
     83 H83       -75.8050   30.9847  -74.0497 H         1 UNK         0.0461 
     84 H84       -72.5704   31.1215  -76.5727 H         1 UNK         0.3453 
     85 H85       -72.3374   30.7576  -74.8815 H         1 UNK         0.3453 
     86 H86       -73.6162   30.5970  -72.3131 H         1 UNK         0.2984 
     87 H87       -72.5400   28.5744  -72.0255 H         1 UNK         0.0554 
     88 H88       -73.8009   27.3142  -70.2448 H         1 UNK         0.0847 
     89 H89       -75.2843   27.5139  -71.1804 H         1 UNK         0.0847 
     90 H90       -74.4630   28.9141  -70.5311 H         1 UNK         0.0847 
     91 H91       -72.0624   26.6677  -72.9767 H         1 UNK         0.3141 
     92 H92       -72.0045   24.6598  -73.6770 H         1 UNK         0.0743 
     93 H93       -74.4928   23.0472  -72.8668 H         1 UNK         0.0784 
     94 H94       -73.0415   22.3122  -73.5456 H         1 UNK         0.0784 
     95 H95       -72.9655   23.1641  -72.0153 H         1 UNK         0.0784 
     96 H96       -74.2743   25.0301  -75.3646 H         1 UNK         0.3213 
     97 H97       -72.3702   24.1014  -78.2214 H         1 UNK         0.0855 
     98 H98       -75.1946   23.2845  -77.3742 H         1 UNK         0.0814 
     99 H99       -73.9724   22.2666  -78.1084 H         1 UNK         0.0814 
    100 H100      -74.6946   23.5700  -79.0396 H         1 UNK         0.0814 
    101 H101      -74.6598   25.8185  -77.5948 H         1 UNK         0.3105 
    102 H102      -72.8241   28.4614  -76.5393 H         1 UNK         0.0547 
    103 H103      -71.9257   29.1680  -78.6687 H         1 UNK         0.0837 
    104 H104      -73.3542   28.6548  -79.5426 H         1 UNK         0.0837 
    105 H105      -73.4408   30.0293  -78.4414 H         1 UNK         0.0837 
    106 H106      -74.9170   28.2007  -76.0273 H         1 UNK         0.3020 
    107 H107      -77.0480   27.5053  -76.1288 H         1 UNK         0.1245 
    108 H108      -77.2178   29.9524  -76.2423 H         1 UNK         0.0781 
    109 H109      -77.9325   29.8913  -77.8394 H         1 UNK         0.0781 
    110 H110      -79.2697   31.6149  -75.9832 H         1 UNK         0.0836 
    111 H111      -80.7836   31.0737  -75.3071 H         1 UNK         0.0836 
    112 H112      -78.8587   27.4739  -78.3527 H         1 UNK         0.3022 
    113 H113      -79.6833   25.5872  -79.1425 H         1 UNK         0.0747 
    114 H114      -78.8415   23.8124  -80.7039 H         1 UNK         0.0793 
    115 H115      -77.7676   25.2043  -80.6997 H         1 UNK         0.0793 
    116 H116      -77.3133   23.7466  -79.8272 H         1 UNK         0.0793 
    117 H117      -78.6191   23.3215  -77.5291 H         1 UNK         0.3047 
    118 H118      -81.6794   22.9754  -75.9206 H         1 UNK         0.0822 
    119 H119      -81.5492   20.5354  -76.3612 H         1 UNK         0.0807 
    120 H120      -80.4812   20.8123  -77.7387 H         1 UNK         0.0807 
    121 H121      -82.1476   21.3702  -77.7839 H         1 UNK         0.0807 
    122 H122      -79.3169   21.4603  -75.6244 H         1 UNK         0.2946 
    123 H123      -78.1805   21.9191  -73.5729 H         1 UNK         0.1144 
    124 H124      -76.9291   22.1284  -75.8203 H         1 UNK         0.0793 
    125 H125      -75.9043   22.1798  -74.4071 H         1 UNK         0.0793 
    126 H126      -76.3114   23.6730  -75.2526 H         1 UNK         0.0793 
    127 H127      -76.7774   24.3903  -73.0676 H         1 UNK         0.2896 
@<TRIPOS>BOND
     1    1    2 1    
     2    1   67 1    
     3    1   68 1    
     4    1   69 1    
     5    2    3 2    
     6    2    4 am   BACKBONE|DICT|INTERRES
     7    4    5 1    
     8    4   70 1    
     9    5    6 1    
    10    5   65 1    
    11    5   71 1    
    12    6    7 1    
    13    6   72 1    
    14    6   73 1    
    15    7    8 1    
    16    8    9 1    
    17    8   74 1    
    18    8   75 1    
    19    9   10 ar   
    20    9   14 ar   
    21   10   11 ar   
    22   10   76 1    
    23   11   12 ar   
    24   11   48 1    
    25   12   13 ar   
    26   12   77 1    
    27   13   14 ar   
    28   13   15 1    
    29   14   78 1    
    30   15   16 1    
    31   15   79 1    
    32   15   80 1    
    33   16   17 1    
    34   17   18 1    
    35   17   81 1    
    36   17   82 1    
    37   18   19 1    
    38   18   22 1    
    39   18   83 1    
    40   19   20 am   BACKBONE|DICT|INTERRES
    41   19   21 2    
    42   20   84 1    
    43   20   85 1    
    44   22   23 am   BACKBONE|DICT|INTERRES
    45   22   86 1    
    46   23   24 2    
    47   23   25 1    
    48   25   26 1    
    49   25   27 1    
    50   25   87 1    
    51   26   88 1    
    52   26   89 1    
    53   26   90 1    
    54   27   28 am   BACKBONE|DICT|INTERRES
    55   27   91 1    
    56   28   29 2    
    57   28   30 1    
    58   30   31 1    
    59   30   32 1    
    60   30   92 1    
    61   31   93 1    
    62   31   94 1    
    63   31   95 1    
    64   32   33 am   BACKBONE|DICT|INTERRES
    65   32   96 1    
    66   33   34 2    
    67   33   35 1    
    68   35   36 1    
    69   35   37 1    
    70   35   97 1    
    71   36   98 1    
    72   36   99 1    
    73   36  100 1    
    74   37   38 am   BACKBONE|DICT|INTERRES
    75   37  101 1    
    76   38   39 2    
    77   38   40 1    
    78   40   41 1    
    79   40   42 1    
    80   40  102 1    
    81   41  103 1    
    82   41  104 1    
    83   41  105 1    
    84   42   43 am   BACKBONE|DICT|INTERRES
    85   42  106 1    
    86   43   44 2    
    87   43   45 1    
    88   45   46 1    
    89   45   49 1    
    90   45  107 1    
    91   46   47 1    
    92   46  108 1    
    93   46  109 1    
    94   47   48 1    
    95   48  110 1    
    96   48  111 1    
    97   49   50 am   BACKBONE|DICT|INTERRES
    98   49  112 1    
    99   50   51 2    
   100   50   52 1    
   101   52   53 1    
   102   52   54 1    
   103   52  113 1    
   104   53  114 1    
   105   53  115 1    
   106   53  116 1    
   107   54   55 am   BACKBONE|DICT|INTERRES
   108   54  117 1    
   109   55   56 2    
   110   55   57 1    
   111   57   58 1    
   112   57   59 1    
   113   57  118 1    
   114   58  119 1    
   115   58  120 1    
   116   58  121 1    
   117   59   60 am   BACKBONE|DICT|INTERRES
   118   59  122 1    
   119   60   61 2    
   120   60   62 1    
   121   62   63 1    
   122   62   64 1    
   123   62  123 1    
   124   63  124 1    
   125   63  125 1    
   126   63  126 1    
   127   64   65 am   BACKBONE|DICT|INTERRES
   128   64  127 1    
   129   65   66 2    
@<TRIPOS>SUBSTRUCTURE
     1 UNK         1 GROUP             0       ****    0 ROOT    
