@<TRIPOS>MOLECULE
3R135
127   129    1
SMALL
USER_CHARGES


@<TRIPOS>ATOM
      1 CA        -85.8975   25.3180  -71.2209 C.3       0 UNK        -0.1998 
      2 C         -85.1986   26.1355  -72.2970 C.2       0 UNK         0.4909 
      3 O         -85.8323   26.5253  -73.2789 O.2       0 UNK        -0.5240 
      4 N         -83.9008   26.4068  -72.1150 N.am      1 UNK        -0.4739 
      5 CA        -83.0481   27.1069  -73.0801 C.3       1 UNK         0.0864 
      6 C6        -81.7958   27.7229  -72.3999 C.3       11 UNK        -0.0881 
      7 S7        -80.7704   26.5478  -71.4398 S.3       11 UNK        -0.2682 
      8 C8        -79.8123   27.6762  -70.3722 C.3       11 UNK         0.0289 
      9 C9        -78.6429   28.3182  -71.1096 C.ar      11 UNK        -0.0687 
     10 C10       -78.8663   29.3819  -71.9877 C.ar      11 UNK        -0.0823 
     11 C11       -77.8095   29.9617  -72.6934 C.ar      11 UNK        -0.0830 
     12 C12       -76.5068   29.5091  -72.4689 C.ar      11 UNK        -0.1021 
     13 C13       -76.2633   28.4593  -71.5782 C.ar      11 UNK        -0.0753 
     14 C14       -77.3357   27.8608  -70.9076 C.ar      11 UNK        -0.0933 
     15 C15       -74.8397   27.9733  -71.3589 C.3       11 UNK         0.0166 
     16 S16       -73.8727   29.2032  -70.4299 S.3       11 UNK        -0.2615 
     17 C17       -72.1747   28.5594  -70.6085 C.3       11 UNK        -0.0865 
     18 CA        -71.3904   29.2808  -71.7385 C.3       10 UNK         0.0862 
     19 C         -69.8623   28.9857  -71.6523 C.2       10 UNK         0.5551 
     20 N         -69.2083   28.4765  -72.6904 N.am      10 UNK        -0.7319 
     21 O         -69.2509   29.2350  -70.6163 O.2       10 UNK        -0.5018 
     22 N         -71.9842   29.0014  -73.0540 N.am      10 UNK        -0.4509 
     23 C         -71.9017   29.7877  -74.1336 C.2       10 UNK         0.4899 
     24 O         -71.3917   30.9089  -74.1307 O.2       10 UNK        -0.4839 
     25 CA        -72.4799   29.1968  -75.4372 C.3       9 UNK         0.0222 
     26 CB        -71.9363   29.8870  -76.7053 C.3       9 UNK        -0.1966 
     27 N         -72.3176   27.7370  -75.5251 N.am      9 UNK        -0.4218 
     28 C         -71.1640   27.0509  -75.4907 C.2       9 UNK         0.5020 
     29 O         -70.0539   27.5788  -75.4173 O.2       9 UNK        -0.5274 
     30 CA        -71.2545   25.5202  -75.4803 C.3       8 UNK         0.0270 
     31 CB        -71.4288   25.0103  -74.0383 C.3       8 UNK        -0.1976 
     32 N         -72.3551   25.0189  -76.3090 N.am      8 UNK        -0.4313 
     33 C         -72.1954   24.2246  -77.3754 C.2       8 UNK         0.5041 
     34 O         -71.0988   23.8690  -77.8108 O.2       8 UNK        -0.5577 
     35 CA        -73.4661   23.7060  -78.0668 C.3       7 UNK         0.0284 
     36 CB        -74.0026   22.4598  -77.3435 C.3       7 UNK        -0.1958 
     37 N         -74.5347   24.6992  -78.1833 N.am      7 UNK        -0.4454 
     38 C         -74.5188   25.7311  -79.0387 C.2       7 UNK         0.5089 
     39 O         -73.5557   26.0219  -79.7483 O.2       7 UNK        -0.5125 
     40 CA        -75.8067   26.5626  -79.1396 C.3       6 UNK         0.0408 
     41 CB        -76.8681   25.8223  -79.9702 C.3       6 UNK        -0.1791 
     42 N         -76.3486   26.8628  -77.8161 N.am      6 UNK        -0.4762 
     43 C         -76.0392   27.9566  -77.1058 C.2       6 UNK         0.5007 
     44 O         -75.3166   28.8597  -77.5264 O.2       6 UNK        -0.5032 
     45 CA        -76.6080   28.0455  -75.6730 C.3       5 UNK         0.0783 
     46 C46       -77.9061   28.8962  -75.6215 C.3       11 UNK        -0.0857 
     47 S47       -77.5114   30.6697  -75.4006 S.3       11 UNK        -0.2512 
     48 C48       -78.0940   31.0598  -73.7115 C.3       11 UNK         0.0225 
     49 N         -76.7721   26.7266  -75.0518 N.am      5 UNK        -0.4615 
     50 C         -75.7462   25.9234  -74.7356 C.2       4 UNK         0.5053 
     51 O         -74.5678   26.2295  -74.9162 O.2       4 UNK        -0.5105 
     52 CA        -76.0598   24.5286  -74.1716 C.3       4 UNK         0.0263 
     53 CB        -76.0678   24.5699  -72.6365 C.3       4 UNK        -0.1981 
     54 N         -77.3175   23.9514  -74.6478 N.am      4 UNK        -0.4224 
     55 C         -77.6695   23.7597  -75.9275 C.2       3 UNK         0.4895 
     56 O         -76.9523   24.0411  -76.8885 O.2       3 UNK        -0.5091 
     57 CA        -79.0839   23.2067  -76.1816 C.3       3 UNK         0.0250 
     58 CB        -79.6606   22.4230  -74.9811 C.3       3 UNK        -0.1996 
     59 N         -80.0471   24.2356  -76.5985 N.am      3 UNK        -0.4254 
     60 C         -80.2584   25.4398  -76.0421 C.2       2 UNK         0.5004 
     61 O         -79.5372   25.9421  -75.1768 O.2       2 UNK        -0.5226 
     62 CA        -81.4999   26.2313  -76.5043 C.3       2 UNK         0.0269 
     63 CB        -82.4996   25.4199  -77.3608 C.3       2 UNK        -0.1926 
     64 N         -82.1736   26.8452  -75.3507 N.am      2 UNK        -0.4687 
     65 C         -82.6607   26.2058  -74.2731 C.2       1 UNK         0.5165 
     66 O         -82.7665   24.9782  -74.1852 O.2       1 UNK        -0.5079 
     67 H67       -86.2891   24.3947  -71.6470 H         1 UNK         0.0900 
     68 H68       -86.7311   25.8816  -70.8028 H         1 UNK         0.0900 
     69 H69       -85.2228   25.0558  -70.4060 H         1 UNK         0.0900 
     70 H70       -83.4158   26.0319  -71.3119 H         1 UNK         0.2959 
     71 H71       -83.6332   27.9321  -73.4936 H         1 UNK         0.1079 
     72 H72       -81.1610   28.2003  -73.1474 H         1 UNK         0.0837 
     73 H73       -82.1188   28.5219  -71.7308 H         1 UNK         0.0837 
     74 H74       -79.4456   27.1088  -69.5155 H         1 UNK         0.0685 
     75 H75       -80.4659   28.4478  -69.9629 H         1 UNK         0.0685 
     76 H76       -79.8706   29.7509  -72.1349 H         1 UNK         0.1434 
     77 H77       -75.6814   29.9658  -72.9978 H         1 UNK         0.1329 
     78 H78       -77.1529   27.0426  -70.2247 H         1 UNK         0.1335 
     79 H79       -74.8294   27.0265  -70.8171 H         1 UNK         0.0680 
     80 H80       -74.3782   27.7839  -72.3283 H         1 UNK         0.0680 
     81 H81       -71.6817   28.7066  -69.6455 H         1 UNK         0.1032 
     82 H82       -72.1937   27.4803  -70.7709 H         1 UNK         0.1032 
     83 H83       -71.4803   30.3542  -71.5596 H         1 UNK         0.0461 
     84 H84       -69.6722   28.2853  -73.5712 H         1 UNK         0.3453 
     85 H85       -68.2199   28.3024  -72.6038 H         1 UNK         0.3453 
     86 H86       -72.4020   28.0911  -73.1644 H         1 UNK         0.2984 
     87 H87       -73.5535   29.3825  -75.3978 H         1 UNK         0.0554 
     88 H88       -72.3813   29.4628  -77.6055 H         1 UNK         0.0847 
     89 H89       -70.8532   29.7919  -76.7873 H         1 UNK         0.0847 
     90 H90       -72.1707   30.9521  -76.7023 H         1 UNK         0.0847 
     91 H91       -73.1834   27.2023  -75.4834 H         1 UNK         0.3141 
     92 H92       -70.2967   25.1472  -75.8490 H         1 UNK         0.0743 
     93 H93       -70.6232   25.3696  -73.3961 H         1 UNK         0.0784 
     94 H94       -72.3700   25.3401  -73.5974 H         1 UNK         0.0784 
     95 H95       -71.4086   23.9210  -74.0020 H         1 UNK         0.0784 
     96 H96       -73.2932   25.2799  -76.0220 H         1 UNK         0.3213 
     97 H97       -73.1838   23.4047  -79.0783 H         1 UNK         0.0855 
     98 H98       -74.3206   22.6863  -76.3262 H         1 UNK         0.0814 
     99 H99       -73.2371   21.6851  -77.2809 H         1 UNK         0.0814 
    100 H100      -74.8546   22.0311  -77.8715 H         1 UNK         0.0814 
    101 H101      -75.3938   24.5078  -77.6700 H         1 UNK         0.3105 
    102 H102      -75.5683   27.4920  -79.6615 H         1 UNK         0.0547 
    103 H103      -77.7644   26.4294  -80.0972 H         1 UNK         0.0837 
    104 H104      -76.4903   25.5913  -80.9671 H         1 UNK         0.0837 
    105 H105      -77.1659   24.8800  -79.5089 H         1 UNK         0.0837 
    106 H106      -76.8963   26.1342  -77.3735 H         1 UNK         0.3020 
    107 H107      -75.8447   28.5512  -75.0787 H         1 UNK         0.1245 
    108 H108      -78.5531   28.5670  -74.8079 H         1 UNK         0.0781 
    109 H109      -78.5076   28.7719  -76.5241 H         1 UNK         0.0781 
    110 H110      -79.1637   31.2685  -73.7626 H         1 UNK         0.0836 
    111 H111      -77.6202   31.9844  -73.3796 H         1 UNK         0.0836 
    112 H112      -77.7272   26.3997  -74.9155 H         1 UNK         0.3022 
    113 H113      -75.2561   23.8626  -74.4887 H         1 UNK         0.0747 
    114 H114      -76.2003   23.5747  -72.2118 H         1 UNK         0.0793 
    115 H115      -75.1243   24.9597  -72.2523 H         1 UNK         0.0793 
    116 H116      -76.8666   25.2079  -72.2556 H         1 UNK         0.0793 
    117 H117      -78.0064   23.7383  -73.9414 H         1 UNK         0.3047 
    118 H118      -78.9878   22.5098  -77.0157 H         1 UNK         0.0822 
    119 H119      -78.9642   21.6593  -74.6313 H         1 UNK         0.0807 
    120 H120      -80.5803   21.9086  -75.2605 H         1 UNK         0.0807 
    121 H121      -79.8993   23.0739  -74.1387 H         1 UNK         0.0807 
    122 H122      -80.6821   23.9521  -77.3311 H         1 UNK         0.2946 
    123 H123      -81.1218   27.0506  -77.1182 H         1 UNK         0.1144 
    124 H124      -82.0489   25.0982  -78.3004 H         1 UNK         0.0793 
    125 H125      -83.3694   26.0235  -77.6206 H         1 UNK         0.0793 
    126 H126      -82.8611   24.5313  -76.8418 H         1 UNK         0.0793 
    127 H127      -82.1151   27.8532  -75.3138 H         1 UNK         0.2896 
@<TRIPOS>BOND
     1    1    2 1    
     2    1   67 1    
     3    1   68 1    
     4    1   69 1    
     5    2    3 2    
     6    2    4 am   BACKBONE|DICT|INTERRES
     7    4    5 1    
     8    4   70 1    
     9    5    6 1    
    10    5   65 1    
    11    5   71 1    
    12    6    7 1    
    13    6   72 1    
    14    6   73 1    
    15    7    8 1    
    16    8    9 1    
    17    8   74 1    
    18    8   75 1    
    19    9   10 ar   
    20    9   14 ar   
    21   10   11 ar   
    22   10   76 1    
    23   11   12 ar   
    24   11   48 1    
    25   12   13 ar   
    26   12   77 1    
    27   13   14 ar   
    28   13   15 1    
    29   14   78 1    
    30   15   16 1    
    31   15   79 1    
    32   15   80 1    
    33   16   17 1    
    34   17   18 1    
    35   17   81 1    
    36   17   82 1    
    37   18   19 1    
    38   18   22 1    
    39   18   83 1    
    40   19   20 am   BACKBONE|DICT|INTERRES
    41   19   21 2    
    42   20   84 1    
    43   20   85 1    
    44   22   23 am   BACKBONE|DICT|INTERRES
    45   22   86 1    
    46   23   24 2    
    47   23   25 1    
    48   25   26 1    
    49   25   27 1    
    50   25   87 1    
    51   26   88 1    
    52   26   89 1    
    53   26   90 1    
    54   27   28 am   BACKBONE|DICT|INTERRES
    55   27   91 1    
    56   28   29 2    
    57   28   30 1    
    58   30   31 1    
    59   30   32 1    
    60   30   92 1    
    61   31   93 1    
    62   31   94 1    
    63   31   95 1    
    64   32   33 am   BACKBONE|DICT|INTERRES
    65   32   96 1    
    66   33   34 2    
    67   33   35 1    
    68   35   36 1    
    69   35   37 1    
    70   35   97 1    
    71   36   98 1    
    72   36   99 1    
    73   36  100 1    
    74   37   38 am   BACKBONE|DICT|INTERRES
    75   37  101 1    
    76   38   39 2    
    77   38   40 1    
    78   40   41 1    
    79   40   42 1    
    80   40  102 1    
    81   41  103 1    
    82   41  104 1    
    83   41  105 1    
    84   42   43 am   BACKBONE|DICT|INTERRES
    85   42  106 1    
    86   43   44 2    
    87   43   45 1    
    88   45   46 1    
    89   45   49 1    
    90   45  107 1    
    91   46   47 1    
    92   46  108 1    
    93   46  109 1    
    94   47   48 1    
    95   48  110 1    
    96   48  111 1    
    97   49   50 am   BACKBONE|DICT|INTERRES
    98   49  112 1    
    99   50   51 2    
   100   50   52 1    
   101   52   53 1    
   102   52   54 1    
   103   52  113 1    
   104   53  114 1    
   105   53  115 1    
   106   53  116 1    
   107   54   55 am   BACKBONE|DICT|INTERRES
   108   54  117 1    
   109   55   56 2    
   110   55   57 1    
   111   57   58 1    
   112   57   59 1    
   113   57  118 1    
   114   58  119 1    
   115   58  120 1    
   116   58  121 1    
   117   59   60 am   BACKBONE|DICT|INTERRES
   118   59  122 1    
   119   60   61 2    
   120   60   62 1    
   121   62   63 1    
   122   62   64 1    
   123   62  123 1    
   124   63  124 1    
   125   63  125 1    
   126   63  126 1    
   127   64   65 am   BACKBONE|DICT|INTERRES
   128   64  127 1    
   129   65   66 2    
@<TRIPOS>SUBSTRUCTURE
     1 UNK         1 GROUP             0       ****    0 ROOT    
