@<TRIPOS>MOLECULE
3R135
127   129    1
SMALL
USER_CHARGES


@<TRIPOS>ATOM
      1 CA        -82.2767   23.3116  -70.7788 C.3       0 UNK        -0.1998 
      2 C         -81.5392   24.5996  -71.1155 C.2       0 UNK         0.4909 
      3 O         -80.4968   24.8710  -70.5203 O.2       0 UNK        -0.5240 
      4 N         -82.0893   25.3847  -72.0539 N.am      1 UNK        -0.4739 
      5 CA        -81.5546   26.6413  -72.6001 C.3       1 UNK         0.0864 
      6 C6        -81.1588   27.6698  -71.5032 C.3       11 UNK        -0.0881 
      7 S7        -81.1960   29.4037  -72.0777 S.3       11 UNK        -0.2682 
      8 C8        -79.6505   30.0685  -71.3755 C.3       11 UNK         0.0289 
      9 C9        -78.4146   29.5724  -72.1141 C.ar      11 UNK        -0.0687 
     10 C10       -77.6710   28.5022  -71.6095 C.ar      11 UNK        -0.0823 
     11 C11       -76.5355   28.0458  -72.2828 C.ar      11 UNK        -0.0830 
     12 C12       -76.1419   28.6697  -73.4697 C.ar      11 UNK        -0.1021 
     13 C13       -76.8577   29.7628  -73.9723 C.ar      11 UNK        -0.0753 
     14 C14       -77.9971   30.2031  -73.2899 C.ar      11 UNK        -0.0933 
     15 C15       -76.4276   30.4705  -75.2557 C.3       11 UNK         0.0166 
     16 S16       -74.6279   30.7253  -75.4025 S.3       11 UNK        -0.2615 
     17 C17       -74.2835   31.7155  -73.9105 C.3       11 UNK        -0.0865 
     18 CA        -72.7697   31.9634  -73.6936 C.3       10 UNK         0.0862 
     19 C         -72.5591   32.9088  -72.4777 C.2       10 UNK         0.5551 
     20 N         -72.4666   34.2104  -72.7134 N.am      10 UNK        -0.7319 
     21 O         -72.5275   32.4777  -71.3263 O.2       10 UNK        -0.5018 
     22 N         -72.0253   30.6984  -73.5790 N.am      10 UNK        -0.4509 
     23 C         -70.6998   30.5814  -73.4426 C.2       10 UNK         0.4899 
     24 O         -69.9195   31.5338  -73.4723 O.2       10 UNK        -0.4839 
     25 CA        -70.1313   29.1641  -73.2521 C.3       9 UNK         0.0222 
     26 CB        -70.4385   28.6202  -71.8418 C.3       9 UNK        -0.1966 
     27 N         -70.5074   28.2085  -74.3040 N.am      9 UNK        -0.4218 
     28 C         -71.7113   27.6840  -74.5707 C.2       9 UNK         0.5020 
     29 O         -72.7375   27.9387  -73.9361 O.2       9 UNK        -0.5274 
     30 CA        -71.7526   26.6526  -75.7097 C.3       8 UNK         0.0270 
     31 CB        -71.4824   25.2446  -75.1568 C.3       8 UNK        -0.1976 
     32 N         -73.0447   26.6623  -76.3971 N.am      8 UNK        -0.4313 
     33 C         -73.4281   27.6052  -77.2692 C.2       8 UNK         0.5041 
     34 O         -72.6840   28.5120  -77.6491 O.2       8 UNK        -0.5577 
     35 CA        -74.8754   27.5282  -77.8068 C.3       7 UNK         0.0284 
     36 CB        -75.0511   28.2508  -79.1582 C.3       7 UNK        -0.1958 
     37 N         -75.4274   26.1696  -77.8755 N.am      7 UNK        -0.4454 
     38 C         -74.9417   25.1109  -78.5430 C.2       7 UNK         0.5089 
     39 O         -73.9461   25.1447  -79.2679 O.2       7 UNK        -0.5125 
     40 CA        -75.6976   23.7835  -78.3192 C.3       6 UNK         0.0408 
     41 CB        -74.9014   22.5442  -78.7781 C.3       6 UNK        -0.1791 
     42 N         -76.1484   23.6413  -76.9279 N.am      6 UNK        -0.4762 
     43 C         -75.3816   23.6134  -75.8262 C.2       6 UNK         0.5007 
     44 O         -74.1530   23.5702  -75.8530 O.2       6 UNK        -0.5032 
     45 CA        -76.0889   23.7258  -74.4599 C.3       5 UNK         0.0783 
     46 C46       -75.8881   25.1509  -73.8910 C.3       11 UNK        -0.0857 
     47 S47       -76.4353   25.2823  -72.1609 S.3       11 UNK        -0.2512 
     48 C48       -75.7249   26.8942  -71.7084 C.3       11 UNK         0.0225 
     49 N         -77.5096   23.3680  -74.5258 N.am      5 UNK        -0.4615 
     50 C         -77.9779   22.1237  -74.6880 C.2       4 UNK         0.5053 
     51 O         -77.2647   21.1217  -74.7367 O.2       4 UNK        -0.5105 
     52 CA        -79.4975   21.9814  -74.8561 C.3       4 UNK         0.0263 
     53 CB        -80.1895   21.9044  -73.4868 C.3       4 UNK        -0.1981 
     54 N         -80.0506   23.0942  -75.6329 N.am      4 UNK        -0.4224 
     55 C         -79.9915   23.1741  -76.9709 C.2       3 UNK         0.4895 
     56 O         -79.5265   22.2880  -77.6877 O.2       3 UNK        -0.5091 
     57 CA        -80.5235   24.4585  -77.6309 C.3       3 UNK         0.0250 
     58 CB        -82.0068   24.2974  -78.0003 C.3       3 UNK        -0.1996 
     59 N         -80.3579   25.6553  -76.8043 N.am      3 UNK        -0.4254 
     60 C         -79.1801   26.2173  -76.4996 C.2       2 UNK         0.5004 
     61 O         -78.0927   25.8014  -76.8969 O.2       2 UNK        -0.5226 
     62 CA        -79.2159   27.4393  -75.5708 C.3       2 UNK         0.0269 
     63 CB        -79.4153   28.7141  -76.4063 C.3       2 UNK        -0.1926 
     64 N         -80.2371   27.3906  -74.5180 N.am      2 UNK        -0.4687 
     65 C         -80.4365   26.3963  -73.6404 C.2       1 UNK         0.5165 
     66 O         -79.8195   25.3279  -73.6747 O.2       1 UNK        -0.5079 
     67 H67       -81.5907   22.4656  -70.8110 H         1 UNK         0.0900 
     68 H68       -82.6947   23.3714  -69.7743 H         1 UNK         0.0900 
     69 H69       -83.0904   23.1121  -71.4759 H         1 UNK         0.0900 
     70 H70       -82.9430   25.0710  -72.4944 H         1 UNK         0.2959 
     71 H71       -82.3951   27.0626  -73.1544 H         1 UNK         0.1079 
     72 H72       -80.1846   27.4250  -71.0812 H         1 UNK         0.0837 
     73 H73       -81.8603   27.6067  -70.6699 H         1 UNK         0.0837 
     74 H74       -79.5941   29.8158  -70.3154 H         1 UNK         0.0685 
     75 H75       -79.6866   31.1578  -71.4234 H         1 UNK         0.0685 
     76 H76       -77.9728   28.0198  -70.6901 H         1 UNK         0.1434 
     77 H77       -75.2660   28.3144  -73.9938 H         1 UNK         0.1329 
     78 H78       -78.5661   31.0386  -73.6741 H         1 UNK         0.1335 
     79 H79       -76.7612   29.8826  -76.1097 H         1 UNK         0.0680 
     80 H80       -76.9177   31.4417  -75.3396 H         1 UNK         0.0680 
     81 H81       -74.7067   31.2118  -73.0393 H         1 UNK         0.1032 
     82 H82       -74.8185   32.6624  -74.0064 H         1 UNK         0.1032 
     83 H83       -72.3820   32.4689  -74.5803 H         1 UNK         0.0461 
     84 H84       -72.3465   34.8420  -71.9369 H         1 UNK         0.3453 
     85 H85       -72.5013   34.5740  -73.6532 H         1 UNK         0.3453 
     86 H86       -72.5746   29.8436  -73.5894 H         1 UNK         0.2984 
     87 H87       -69.0462   29.2544  -73.3257 H         1 UNK         0.0554 
     88 H88       -70.0604   29.2977  -71.0750 H         1 UNK         0.0847 
     89 H89       -69.9671   27.6511  -71.6789 H         1 UNK         0.0847 
     90 H90       -71.5087   28.5052  -71.6675 H         1 UNK         0.0847 
     91 H91       -69.7439   27.9330  -74.9070 H         1 UNK         0.3141 
     92 H92       -70.9741   26.8939  -76.4369 H         1 UNK         0.0743 
     93 H93       -70.5026   25.1906  -74.6804 H         1 UNK         0.0784 
     94 H94       -71.4976   24.4968  -75.9501 H         1 UNK         0.0784 
     95 H95       -72.2231   24.9558  -74.4097 H         1 UNK         0.0784 
     96 H96       -73.6931   25.9279  -76.1522 H         1 UNK         0.3213 
     97 H97       -75.4853   28.0561  -77.0730 H         1 UNK         0.0855 
     98 H98       -74.4276   27.8078  -79.9353 H         1 UNK         0.0814 
     99 H99       -74.7752   29.3031  -79.0783 H         1 UNK         0.0814 
    100 H100      -76.0869   28.2147  -79.4956 H         1 UNK         0.0814 
    101 H101      -76.3001   26.0227  -77.3699 H         1 UNK         0.3105 
    102 H102      -76.6021   23.8402  -78.9266 H         1 UNK         0.0547 
    103 H103      -75.4610   21.6259  -78.6006 H         1 UNK         0.0837 
    104 H104      -73.9447   22.4601  -78.2620 H         1 UNK         0.0837 
    105 H105      -74.6885   22.5925  -79.8466 H         1 UNK         0.0837 
    106 H106      -77.1446   23.7542  -76.7876 H         1 UNK         0.3020 
    107 H107      -75.5915   23.0153  -73.7954 H         1 UNK         0.1245 
    108 H108      -76.4296   25.8862  -74.4885 H         1 UNK         0.0781 
    109 H109      -74.8347   25.4377  -73.9270 H         1 UNK         0.0781 
    110 H110      -74.6857   26.9515  -72.0374 H         1 UNK         0.0836 
    111 H111      -75.7002   26.9731  -70.6206 H         1 UNK         0.0836 
    112 H112      -78.1723   24.1271  -74.4143 H         1 UNK         0.3022 
    113 H113      -79.6946   21.0473  -75.3871 H         1 UNK         0.0747 
    114 H114      -81.2721   21.8297  -73.5896 H         1 UNK         0.0793 
    115 H115      -79.8538   21.0275  -72.9319 H         1 UNK         0.0793 
    116 H116      -79.9668   22.7782  -72.8743 H         1 UNK         0.0793 
    117 H117      -80.3738   23.8964  -75.1045 H         1 UNK         0.3047 
    118 H118      -79.9567   24.6095  -78.5525 H         1 UNK         0.0822 
    119 H119      -82.3766   25.1652  -78.5469 H         1 UNK         0.0807 
    120 H120      -82.6322   24.1641  -77.1166 H         1 UNK         0.0807 
    121 H121      -82.1570   23.4264  -78.6400 H         1 UNK         0.0807 
    122 H122      -81.1964   26.0752  -76.4302 H         1 UNK         0.2946 
    123 H123      -78.2466   27.4922  -75.0731 H         1 UNK         0.1144 
    124 H124      -79.3477   29.6111  -75.7919 H         1 UNK         0.0793 
    125 H125      -80.3873   28.7239  -76.9008 H         1 UNK         0.0793 
    126 H126      -78.6555   28.7950  -77.1851 H         1 UNK         0.0793 
    127 H127      -80.7745   28.2370  -74.3893 H         1 UNK         0.2896 
@<TRIPOS>BOND
     1    1    2 1    
     2    1   67 1    
     3    1   68 1    
     4    1   69 1    
     5    2    3 2    
     6    2    4 am   BACKBONE|DICT|INTERRES
     7    4    5 1    
     8    4   70 1    
     9    5    6 1    
    10    5   65 1    
    11    5   71 1    
    12    6    7 1    
    13    6   72 1    
    14    6   73 1    
    15    7    8 1    
    16    8    9 1    
    17    8   74 1    
    18    8   75 1    
    19    9   10 ar   
    20    9   14 ar   
    21   10   11 ar   
    22   10   76 1    
    23   11   12 ar   
    24   11   48 1    
    25   12   13 ar   
    26   12   77 1    
    27   13   14 ar   
    28   13   15 1    
    29   14   78 1    
    30   15   16 1    
    31   15   79 1    
    32   15   80 1    
    33   16   17 1    
    34   17   18 1    
    35   17   81 1    
    36   17   82 1    
    37   18   19 1    
    38   18   22 1    
    39   18   83 1    
    40   19   20 am   BACKBONE|DICT|INTERRES
    41   19   21 2    
    42   20   84 1    
    43   20   85 1    
    44   22   23 am   BACKBONE|DICT|INTERRES
    45   22   86 1    
    46   23   24 2    
    47   23   25 1    
    48   25   26 1    
    49   25   27 1    
    50   25   87 1    
    51   26   88 1    
    52   26   89 1    
    53   26   90 1    
    54   27   28 am   BACKBONE|DICT|INTERRES
    55   27   91 1    
    56   28   29 2    
    57   28   30 1    
    58   30   31 1    
    59   30   32 1    
    60   30   92 1    
    61   31   93 1    
    62   31   94 1    
    63   31   95 1    
    64   32   33 am   BACKBONE|DICT|INTERRES
    65   32   96 1    
    66   33   34 2    
    67   33   35 1    
    68   35   36 1    
    69   35   37 1    
    70   35   97 1    
    71   36   98 1    
    72   36   99 1    
    73   36  100 1    
    74   37   38 am   BACKBONE|DICT|INTERRES
    75   37  101 1    
    76   38   39 2    
    77   38   40 1    
    78   40   41 1    
    79   40   42 1    
    80   40  102 1    
    81   41  103 1    
    82   41  104 1    
    83   41  105 1    
    84   42   43 am   BACKBONE|DICT|INTERRES
    85   42  106 1    
    86   43   44 2    
    87   43   45 1    
    88   45   46 1    
    89   45   49 1    
    90   45  107 1    
    91   46   47 1    
    92   46  108 1    
    93   46  109 1    
    94   47   48 1    
    95   48  110 1    
    96   48  111 1    
    97   49   50 am   BACKBONE|DICT|INTERRES
    98   49  112 1    
    99   50   51 2    
   100   50   52 1    
   101   52   53 1    
   102   52   54 1    
   103   52  113 1    
   104   53  114 1    
   105   53  115 1    
   106   53  116 1    
   107   54   55 am   BACKBONE|DICT|INTERRES
   108   54  117 1    
   109   55   56 2    
   110   55   57 1    
   111   57   58 1    
   112   57   59 1    
   113   57  118 1    
   114   58  119 1    
   115   58  120 1    
   116   58  121 1    
   117   59   60 am   BACKBONE|DICT|INTERRES
   118   59  122 1    
   119   60   61 2    
   120   60   62 1    
   121   62   63 1    
   122   62   64 1    
   123   62  123 1    
   124   63  124 1    
   125   63  125 1    
   126   63  126 1    
   127   64   65 am   BACKBONE|DICT|INTERRES
   128   64  127 1    
   129   65   66 2    
@<TRIPOS>SUBSTRUCTURE
     1 UNK         1 GROUP             0       ****    0 ROOT    
