@<TRIPOS>MOLECULE
3R135
127   129    1
SMALL
USER_CHARGES


@<TRIPOS>ATOM
      1 CA        -80.9441   24.2718  -71.1503 C.3       0 UNK        -0.1998 
      2 C         -81.3673   25.0400  -72.3929 C.2       0 UNK         0.4909 
      3 O         -81.3681   24.4798  -73.4913 O.2       0 UNK        -0.5240 
      4 N         -81.7308   26.3179  -72.2126 N.am      1 UNK        -0.4739 
      5 CA        -82.2416   27.2439  -73.2336 C.3       1 UNK         0.0864 
      6 C6        -82.6831   28.6217  -72.6527 C.3       11 UNK        -0.0881 
      7 S7        -81.8717   29.1512  -71.0974 S.3       11 UNK        -0.2682 
      8 C8        -80.5753   30.3153  -71.6494 C.3       11 UNK         0.0289 
      9 C9        -79.2163   29.6707  -71.9219 C.ar      11 UNK        -0.0687 
     10 C10       -78.7582   28.5748  -71.1759 C.ar      11 UNK        -0.0823 
     11 C11       -77.5065   28.0101  -71.4348 C.ar      11 UNK        -0.0830 
     12 C12       -76.7034   28.5573  -72.4331 C.ar      11 UNK        -0.1021 
     13 C13       -77.1305   29.6591  -73.1739 C.ar      11 UNK        -0.0753 
     14 C14       -78.3874   30.2136  -72.9118 C.ar      11 UNK        -0.0933 
     15 C15       -76.2564   30.1991  -74.2967 C.3       11 UNK         0.0166 
     16 S16       -75.3209   31.6860  -73.8266 S.3       11 UNK        -0.2615 
     17 C17       -74.1619   31.0939  -72.5358 C.3       11 UNK        -0.0865 
     18 CA        -72.9289   30.2573  -73.0022 C.3       10 UNK         0.0862 
     19 C         -73.1483   28.7267  -72.8955 C.2       10 UNK         0.5551 
     20 N         -73.0910   28.1758  -71.6911 N.am      10 UNK        -0.7319 
     21 O         -73.3948   28.0377  -73.8851 O.2       10 UNK        -0.5018 
     22 N         -72.4623   30.5806  -74.3495 N.am      10 UNK        -0.4509 
     23 C         -71.4785   31.4179  -74.6824 C.2       10 UNK         0.4899 
     24 O         -70.9451   32.2041  -73.8978 O.2       10 UNK        -0.4839 
     25 CA        -70.9967   31.3190  -76.1467 C.3       9 UNK         0.0222 
     26 CB        -69.5764   31.8872  -76.3500 C.3       9 UNK        -0.1966 
     27 N         -71.0981   29.9502  -76.6830 N.am      9 UNK        -0.4218 
     28 C         -70.5143   28.8389  -76.2058 C.2       9 UNK         0.5020 
     29 O         -69.7094   28.8319  -75.2722 O.2       9 UNK        -0.5274 
     30 CA        -70.9405   27.5104  -76.8620 C.3       8 UNK         0.0270 
     31 CB        -70.2202   26.2897  -76.2586 C.3       8 UNK        -0.1976 
     32 N         -72.3870   27.2836  -76.7769 N.am      8 UNK        -0.4313 
     33 C         -73.3135   27.8520  -77.5587 C.2       8 UNK         0.5041 
     34 O         -73.0450   28.7334  -78.3791 O.2       8 UNK        -0.5577 
     35 CA        -74.7715   27.3660  -77.3977 C.3       7 UNK         0.0284 
     36 CB        -75.6402   27.6991  -78.6275 C.3       7 UNK        -0.1958 
     37 N         -74.9196   25.9420  -77.0639 N.am      7 UNK        -0.4454 
     38 C         -74.3646   24.8779  -77.6662 C.2       7 UNK         0.5089 
     39 O         -73.5839   24.9550  -78.6159 O.2       7 UNK        -0.5125 
     40 CA        -74.7670   23.4823  -77.1437 C.3       6 UNK         0.0408 
     41 CB        -73.5708   22.5083  -77.0942 C.3       6 UNK        -0.1791 
     42 N         -75.4995   23.4961  -75.8698 N.am      6 UNK        -0.4762 
     43 C         -75.0509   23.8160  -74.6434 C.2       6 UNK         0.5007 
     44 O         -73.8847   24.1313  -74.4071 O.2       6 UNK        -0.5032 
     45 CA        -76.0779   23.8059  -73.4854 C.3       5 UNK         0.0783 
     46 C46       -76.2162   25.2156  -72.8546 C.3       11 UNK        -0.0857 
     47 S47       -77.4003   25.2419  -71.4634 S.3       11 UNK        -0.2512 
     48 C48       -77.0083   26.8147  -70.6374 C.3       11 UNK         0.0225 
     49 N         -77.3789   23.2843  -73.9193 N.am      5 UNK        -0.4615 
     50 C         -77.7279   21.9928  -73.9526 C.2       4 UNK         0.5053 
     51 O         -76.9982   21.0788  -73.5688 O.2       4 UNK        -0.5105 
     52 CA        -79.1160   21.6587  -74.5301 C.3       4 UNK         0.0263 
     53 CB        -80.0923   21.2395  -73.4210 C.3       4 UNK        -0.1981 
     54 N         -79.6918   22.7642  -75.3073 N.am      4 UNK        -0.4224 
     55 C         -79.3213   23.0435  -76.5661 C.2       3 UNK         0.4895 
     56 O         -78.4775   22.3972  -77.1883 O.2       3 UNK        -0.5091 
     57 CA        -79.9650   24.2681  -77.2338 C.3       3 UNK         0.0250 
     58 CB        -81.4345   23.9895  -77.5890 C.3       3 UNK        -0.1996 
     59 N         -79.8808   25.4930  -76.4370 N.am      3 UNK        -0.4254 
     60 C         -78.7628   26.0653  -75.9732 C.2       2 UNK         0.5004 
     61 O         -77.6390   25.5848  -76.1029 O.2       2 UNK        -0.5226 
     62 CA        -78.9082   27.3919  -75.2152 C.3       2 UNK         0.0269 
     63 CB        -78.9869   28.5827  -76.1911 C.3       2 UNK        -0.1926 
     64 N         -80.0010   27.3988  -74.2334 N.am      2 UNK        -0.4687 
     65 C         -81.3215   27.4011  -74.4586 C.2       1 UNK         0.5165 
     66 O         -81.8258   27.4579  -75.5812 O.2       1 UNK        -0.5079 
     67 H67       -81.6355   23.4503  -70.9653 H         1 UNK         0.0900 
     68 H68       -80.9257   24.9067  -70.2647 H         1 UNK         0.0900 
     69 H69       -79.9476   23.8550  -71.2829 H         1 UNK         0.0900 
     70 H70       -81.6881   26.7158  -71.2844 H         1 UNK         0.2959 
     71 H71       -83.1408   26.7647  -73.6281 H         1 UNK         0.1079 
     72 H72       -82.6148   29.4213  -73.3935 H         1 UNK         0.0837 
     73 H73       -83.7476   28.5626  -72.4201 H         1 UNK         0.0837 
     74 H74       -80.9280   30.8571  -72.5282 H         1 UNK         0.0685 
     75 H75       -80.4372   31.0624  -70.8670 H         1 UNK         0.0685 
     76 H76       -79.3723   28.1567  -70.3907 H         1 UNK         0.1434 
     77 H77       -75.7504   28.1023  -72.6461 H         1 UNK         0.1329 
     78 H78       -78.7225   31.0645  -73.4890 H         1 UNK         0.1335 
     79 H79       -76.8838   30.4502  -75.1524 H         1 UNK         0.0680 
     80 H80       -75.5658   29.4340  -74.6502 H         1 UNK         0.0680 
     81 H81       -74.7256   30.5807  -71.7547 H         1 UNK         0.1032 
     82 H82       -73.7840   31.9942  -72.0494 H         1 UNK         0.1032 
     83 H83       -72.1086   30.4730  -72.3140 H         1 UNK         0.0461 
     84 H84       -72.8864   28.7260  -70.8718 H         1 UNK         0.3453 
     85 H85       -73.2175   27.1804  -71.6059 H         1 UNK         0.3453 
     86 H86       -72.8034   29.9425  -75.0544 H         1 UNK         0.2984 
     87 H87       -71.6846   31.9283  -76.7345 H         1 UNK         0.0554 
     88 H88       -69.2648   31.8143  -77.3918 H         1 UNK         0.0847 
     89 H89       -68.8391   31.3624  -75.7415 H         1 UNK         0.0847 
     90 H90       -69.5335   32.9413  -76.0734 H         1 UNK         0.0847 
     91 H91       -71.7681   29.8110  -77.4381 H         1 UNK         0.3141 
     92 H92       -70.6602   27.5703  -77.9159 H         1 UNK         0.0743 
     93 H93       -70.4611   26.1616  -75.2023 H         1 UNK         0.0784 
     94 H94       -70.4944   25.3713  -76.7786 H         1 UNK         0.0784 
     95 H95       -69.1372   26.3942  -76.3379 H         1 UNK         0.0784 
     96 H96       -72.7015   26.6305  -76.0715 H         1 UNK         0.3213 
     97 H97       -75.1775   27.9159  -76.5479 H         1 UNK         0.0855 
     98 H98       -75.6643   28.7733  -78.8148 H         1 UNK         0.0814 
     99 H99       -76.6705   27.3727  -78.4856 H         1 UNK         0.0814 
    100 H100      -75.2577   27.2176  -79.5282 H         1 UNK         0.0814 
    101 H101      -75.6277   25.7353  -76.3664 H         1 UNK         0.3105 
    102 H102      -75.4743   23.0896  -77.8755 H         1 UNK         0.0547 
    103 H103      -73.1434   22.3640  -78.0872 H         1 UNK         0.0837 
    104 H104      -72.7713   22.8777  -76.4518 H         1 UNK         0.0837 
    105 H105      -73.8717   21.5269  -76.7281 H         1 UNK         0.0837 
    106 H106      -76.4904   23.3064  -75.9553 H         1 UNK         0.3020 
    107 H107      -75.6718   23.1382  -72.7218 H         1 UNK         0.1245 
    108 H108      -76.5415   25.9381  -73.6027 H         1 UNK         0.0781 
    109 H109      -75.2477   25.5644  -72.4907 H         1 UNK         0.0781 
    110 H110      -75.9322   26.8881  -70.4719 H         1 UNK         0.0836 
    111 H111      -77.4659   26.8129  -69.6470 H         1 UNK         0.0836 
    112 H112      -78.0347   23.9689  -74.2666 H         1 UNK         0.3022 
    113 H113      -78.9871   20.7998  -75.1926 H         1 UNK         0.0747 
    114 H114      -81.0619   20.9575  -73.8314 H         1 UNK         0.0793 
    115 H115      -79.7105   20.3792  -72.8697 H         1 UNK         0.0793 
    116 H116      -80.2534   22.0393  -72.7022 H         1 UNK         0.0793 
    117 H117      -80.3683   23.3609  -74.8362 H         1 UNK         0.3047 
    118 H118      -79.4213   24.4539  -78.1624 H         1 UNK         0.0822 
    119 H119      -81.8620   24.8050  -78.1727 H         1 UNK         0.0807 
    120 H120      -82.0488   23.8601  -76.6966 H         1 UNK         0.0807 
    121 H121      -81.5282   23.0812  -78.1861 H         1 UNK         0.0807 
    122 H122      -80.7500   25.9873  -76.2608 H         1 UNK         0.2946 
    123 H123      -77.9944   27.5076  -74.6361 H         1 UNK         0.1144 
    124 H124      -79.1328   29.5236  -75.6621 H         1 UNK         0.0793 
    125 H125      -79.8021   28.4756  -76.9070 H         1 UNK         0.0793 
    126 H126      -78.0649   28.6710  -76.7664 H         1 UNK         0.0793 
    127 H127      -79.7066   27.3361  -73.2676 H         1 UNK         0.2896 
@<TRIPOS>BOND
     1    1    2 1    
     2    1   67 1    
     3    1   68 1    
     4    1   69 1    
     5    2    3 2    
     6    2    4 am   BACKBONE|DICT|INTERRES
     7    4    5 1    
     8    4   70 1    
     9    5    6 1    
    10    5   65 1    
    11    5   71 1    
    12    6    7 1    
    13    6   72 1    
    14    6   73 1    
    15    7    8 1    
    16    8    9 1    
    17    8   74 1    
    18    8   75 1    
    19    9   10 ar   
    20    9   14 ar   
    21   10   11 ar   
    22   10   76 1    
    23   11   12 ar   
    24   11   48 1    
    25   12   13 ar   
    26   12   77 1    
    27   13   14 ar   
    28   13   15 1    
    29   14   78 1    
    30   15   16 1    
    31   15   79 1    
    32   15   80 1    
    33   16   17 1    
    34   17   18 1    
    35   17   81 1    
    36   17   82 1    
    37   18   19 1    
    38   18   22 1    
    39   18   83 1    
    40   19   20 am   BACKBONE|DICT|INTERRES
    41   19   21 2    
    42   20   84 1    
    43   20   85 1    
    44   22   23 am   BACKBONE|DICT|INTERRES
    45   22   86 1    
    46   23   24 2    
    47   23   25 1    
    48   25   26 1    
    49   25   27 1    
    50   25   87 1    
    51   26   88 1    
    52   26   89 1    
    53   26   90 1    
    54   27   28 am   BACKBONE|DICT|INTERRES
    55   27   91 1    
    56   28   29 2    
    57   28   30 1    
    58   30   31 1    
    59   30   32 1    
    60   30   92 1    
    61   31   93 1    
    62   31   94 1    
    63   31   95 1    
    64   32   33 am   BACKBONE|DICT|INTERRES
    65   32   96 1    
    66   33   34 2    
    67   33   35 1    
    68   35   36 1    
    69   35   37 1    
    70   35   97 1    
    71   36   98 1    
    72   36   99 1    
    73   36  100 1    
    74   37   38 am   BACKBONE|DICT|INTERRES
    75   37  101 1    
    76   38   39 2    
    77   38   40 1    
    78   40   41 1    
    79   40   42 1    
    80   40  102 1    
    81   41  103 1    
    82   41  104 1    
    83   41  105 1    
    84   42   43 am   BACKBONE|DICT|INTERRES
    85   42  106 1    
    86   43   44 2    
    87   43   45 1    
    88   45   46 1    
    89   45   49 1    
    90   45  107 1    
    91   46   47 1    
    92   46  108 1    
    93   46  109 1    
    94   47   48 1    
    95   48  110 1    
    96   48  111 1    
    97   49   50 am   BACKBONE|DICT|INTERRES
    98   49  112 1    
    99   50   51 2    
   100   50   52 1    
   101   52   53 1    
   102   52   54 1    
   103   52  113 1    
   104   53  114 1    
   105   53  115 1    
   106   53  116 1    
   107   54   55 am   BACKBONE|DICT|INTERRES
   108   54  117 1    
   109   55   56 2    
   110   55   57 1    
   111   57   58 1    
   112   57   59 1    
   113   57  118 1    
   114   58  119 1    
   115   58  120 1    
   116   58  121 1    
   117   59   60 am   BACKBONE|DICT|INTERRES
   118   59  122 1    
   119   60   61 2    
   120   60   62 1    
   121   62   63 1    
   122   62   64 1    
   123   62  123 1    
   124   63  124 1    
   125   63  125 1    
   126   63  126 1    
   127   64   65 am   BACKBONE|DICT|INTERRES
   128   64  127 1    
   129   65   66 2    
@<TRIPOS>SUBSTRUCTURE
     1 UNK         1 GROUP             0       ****    0 ROOT    
