@<TRIPOS>MOLECULE
3R135
127   129    1
SMALL
USER_CHARGES


@<TRIPOS>ATOM
      1 CA        -82.3126   25.3123  -72.2991 C.3       0 UNK        -0.1998 
      2 C         -82.4029   26.6905  -72.9338 C.2       0 UNK         0.4909 
      3 O         -83.3158   26.9425  -73.7210 O.2       0 UNK        -0.5240 
      4 N         -81.4701   27.5881  -72.5871 N.am      1 UNK        -0.4739 
      5 CA        -81.4244   28.9747  -73.0783 C.3       1 UNK         0.0864 
      6 C6        -80.4741   29.8655  -72.2410 C.3       11 UNK        -0.0881 
      7 S7        -80.9389   29.8765  -70.4739 S.3       11 UNK        -0.2682 
      8 C8        -79.3567   30.2617  -69.6513 C.3       11 UNK         0.0289 
      9 C9        -78.2499   29.2602  -69.9622 C.ar      11 UNK        -0.0687 
     10 C10       -78.4593   27.8857  -69.8058 C.ar      11 UNK        -0.0823 
     11 C11       -77.4486   26.9727  -70.1210 C.ar      11 UNK        -0.0830 
     12 C12       -76.2121   27.4439  -70.5718 C.ar      11 UNK        -0.1021 
     13 C13       -75.9809   28.8159  -70.7070 C.ar      11 UNK        -0.0753 
     14 C14       -77.0042   29.7177  -70.4021 C.ar      11 UNK        -0.0933 
     15 C15       -74.6194   29.3241  -71.1639 C.3       11 UNK         0.0166 
     16 S16       -74.6866   30.2574  -72.7277 S.3       11 UNK        -0.2615 
     17 C17       -75.6254   29.1385  -73.8279 C.3       11 UNK        -0.0865 
     18 CA        -75.7705   29.6887  -75.2695 C.3       10 UNK         0.0862 
     19 C         -76.6922   30.9445  -75.3233 C.2       10 UNK         0.5551 
     20 N         -76.1952   32.1180  -75.6950 N.am      10 UNK        -0.7319 
     21 O         -77.8813   30.8434  -75.0309 O.2       10 UNK        -0.5018 
     22 N         -74.4660   29.7938  -75.9473 N.am      10 UNK        -0.4509 
     23 C         -74.2948   29.9800  -77.2638 C.2       10 UNK         0.4899 
     24 O         -75.2165   30.0999  -78.0704 O.2       10 UNK        -0.4839 
     25 CA        -72.8423   30.0188  -77.7682 C.3       9 UNK         0.0222 
     26 CB        -72.1419   31.3169  -77.3322 C.3       9 UNK        -0.1966 
     27 N         -72.0565   28.8577  -77.3365 N.am      9 UNK        -0.4218 
     28 C         -72.2694   27.5977  -77.7442 C.2       9 UNK         0.5020 
     29 O         -73.1498   27.2824  -78.5440 O.2       9 UNK        -0.5274 
     30 CA        -71.3456   26.4999  -77.1930 C.3       8 UNK         0.0270 
     31 CB        -70.5771   26.9012  -75.9135 C.3       8 UNK        -0.1976 
     32 N         -72.1416   25.2981  -76.9512 N.am      8 UNK        -0.4313 
     33 C         -71.6860   24.0391  -76.9302 C.2       8 UNK         0.5041 
     34 O         -70.5230   23.7222  -77.1893 O.2       8 UNK        -0.5577 
     35 CA        -72.7101   22.9713  -76.4929 C.3       7 UNK         0.0284 
     36 CB        -72.1042   21.5636  -76.3077 C.3       7 UNK        -0.1958 
     37 N         -73.4327   23.4211  -75.2955 N.am      7 UNK        -0.4454 
     38 C         -72.9067   23.6883  -74.0894 C.2       7 UNK         0.5089 
     39 O         -71.7822   23.3400  -73.7289 O.2       7 UNK        -0.5125 
     40 CA        -73.7461   24.5559  -73.1392 C.3       6 UNK         0.0408 
     41 CB        -73.2448   26.0054  -73.2064 C.3       6 UNK        -0.1791 
     42 N         -75.1749   24.5430  -73.4608 N.am      6 UNK        -0.4762 
     43 C         -76.0886   23.7977  -72.8240 C.2       6 UNK         0.5007 
     44 O         -75.8276   23.0355  -71.8929 O.2       6 UNK        -0.5032 
     45 CA        -77.5387   23.9137  -73.3354 C.3       5 UNK         0.0783 
     46 C46       -78.2594   25.1456  -72.7298 C.3       11 UNK        -0.0857 
     47 S47       -78.9591   24.8266  -71.0764 S.3       11 UNK        -0.2512 
     48 C48       -77.6806   25.4777  -69.9520 C.3       11 UNK         0.0225 
     49 N         -77.5826   23.9257  -74.8019 N.am      5 UNK        -0.4615 
     50 C         -77.2745   22.8699  -75.5712 C.2       4 UNK         0.5053 
     51 O         -76.9876   21.7633  -75.1148 O.2       4 UNK        -0.5105 
     52 CA        -77.2777   23.0514  -77.1012 C.3       4 UNK         0.0263 
     53 CB        -78.4910   22.3389  -77.7213 C.3       4 UNK        -0.1981 
     54 N         -77.2659   24.4425  -77.5562 N.am      4 UNK        -0.4224 
     55 C         -76.2607   25.3123  -77.3909 C.2       3 UNK         0.4895 
     56 O         -75.2109   25.0568  -76.7981 O.2       3 UNK        -0.5091 
     57 CA        -76.5025   26.7289  -77.9340 C.3       3 UNK         0.0250 
     58 CB        -76.2540   26.7661  -79.4508 C.3       3 UNK        -0.1996 
     59 N         -77.8384   27.2771  -77.6576 N.am      3 UNK        -0.4254 
     60 C         -78.4724   27.2851  -76.4762 C.2       2 UNK         0.5004 
     61 O         -78.0280   26.7660  -75.4479 O.2       2 UNK        -0.5226 
     62 CA        -79.8435   27.9679  -76.4508 C.3       2 UNK         0.0269 
     63 CB        -80.8875   27.1537  -77.2381 C.3       2 UNK        -0.1926 
     64 N         -80.2787   28.0979  -75.0652 N.am      2 UNK        -0.4687 
     65 C         -81.0722   29.0586  -74.5786 C.2       1 UNK         0.5165 
     66 O         -81.5429   29.9690  -75.2629 O.2       1 UNK        -0.5079 
     67 H67       -81.8970   25.3671  -71.2934 H         1 UNK         0.0900 
     68 H68       -83.3015   24.8605  -72.2253 H         1 UNK         0.0900 
     69 H69       -81.6826   24.6584  -72.9015 H         1 UNK         0.0900 
     70 H70       -80.7559   27.3362  -71.9185 H         1 UNK         0.2959 
     71 H71       -82.4323   29.3846  -72.9781 H         1 UNK         0.1079 
     72 H72       -80.4951   30.8960  -72.6016 H         1 UNK         0.0837 
     73 H73       -79.4434   29.5251  -72.3554 H         1 UNK         0.0837 
     74 H74       -79.0574   31.2710  -69.9382 H         1 UNK         0.0685 
     75 H75       -79.5174   30.2826  -68.5728 H         1 UNK         0.0685 
     76 H76       -79.4155   27.5247  -69.4522 H         1 UNK         0.1434 
     77 H77       -75.4256   26.7398  -70.8045 H         1 UNK         0.1329 
     78 H78       -76.8263   30.7785  -70.5142 H         1 UNK         0.1335 
     79 H79       -73.9081   28.5059  -71.2670 H         1 UNK         0.0680 
     80 H80       -74.2115   29.9760  -70.3903 H         1 UNK         0.0680 
     81 H81       -76.6126   28.9545  -73.3986 H         1 UNK         0.1032 
     82 H82       -75.1337   28.1667  -73.8516 H         1 UNK         0.1032 
     83 H83       -76.3160   28.9305  -75.8251 H         1 UNK         0.0461 
     84 H84       -75.2206   32.2051  -75.9347 H         1 UNK         0.3453 
     85 H85       -76.8009   32.9221  -75.7299 H         1 UNK         0.3453 
     86 H86       -73.6547   29.7374  -75.3502 H         1 UNK         0.2984 
     87 H87       -72.8735   30.0092  -78.8600 H         1 UNK         0.0554 
     88 H88       -72.7086   32.1919  -77.6537 H         1 UNK         0.0847 
     89 H89       -71.1493   31.3988  -77.7753 H         1 UNK         0.0847 
     90 H90       -72.0307   31.3807  -76.2491 H         1 UNK         0.0847 
     91 H91       -71.3056   29.0294  -76.6838 H         1 UNK         0.3141 
     92 H92       -70.6209   26.2818  -77.9798 H         1 UNK         0.0743 
     93 H93       -71.2486   27.2265  -75.1192 H         1 UNK         0.0784 
     94 H94       -69.9921   26.0669  -75.5258 H         1 UNK         0.0784 
     95 H95       -69.8725   27.7101  -76.1095 H         1 UNK         0.0784 
     96 H96       -73.1406   25.4501  -76.8426 H         1 UNK         0.3213 
     97 H97       -73.4489   22.9074  -77.2935 H         1 UNK         0.0855 
     98 H98       -71.2951   21.5571  -75.5773 H         1 UNK         0.0814 
     99 H99       -71.6909   21.1952  -77.2472 H         1 UNK         0.0814 
    100 H100      -72.8583   20.8478  -75.9813 H         1 UNK         0.0814 
    101 H101      -74.3494   23.8062  -75.4929 H         1 UNK         0.3105 
    102 H102      -73.5829   24.1891  -72.1238 H         1 UNK         0.0547 
    103 H103      -72.1838   26.0666  -72.9603 H         1 UNK         0.0837 
    104 H104      -73.3768   26.4340  -74.2001 H         1 UNK         0.0837 
    105 H105      -73.7755   26.6328  -72.4960 H         1 UNK         0.0837 
    106 H106      -75.4817   25.1251  -74.2286 H         1 UNK         0.3020 
    107 H107      -78.0666   23.0129  -73.0126 H         1 UNK         0.1245 
    108 H108      -79.1112   25.4112  -73.3570 H         1 UNK         0.0781 
    109 H109      -77.6229   26.0321  -72.7233 H         1 UNK         0.0781 
    110 H110      -76.7553   24.9193  -70.0963 H         1 UNK         0.0836 
    111 H111      -77.9898   25.2838  -68.9242 H         1 UNK         0.0836 
    112 H112      -77.7901   24.8206  -75.2356 H         1 UNK         0.3022 
    113 H113      -76.3711   22.5741  -77.4793 H         1 UNK         0.0747 
    114 H114      -78.4604   22.3761  -78.8105 H         1 UNK         0.0793 
    115 H115      -78.5147   21.2857  -77.4374 H         1 UNK         0.0793 
    116 H116      -79.4312   22.7853  -77.3947 H         1 UNK         0.0793 
    117 H117      -78.0936   24.7661  -78.0349 H         1 UNK         0.3047 
    118 H118      -75.7697   27.3776  -77.4544 H         1 UNK         0.0822 
    119 H119      -77.0317   26.2397  -80.0051 H         1 UNK         0.0807 
    120 H120      -75.3025   26.2982  -79.7069 H         1 UNK         0.0807 
    121 H121      -76.2124   27.7924  -79.8165 H         1 UNK         0.0807 
    122 H122      -78.2920   27.7272  -78.4397 H         1 UNK         0.2946 
    123 H123      -79.7329   28.9622  -76.8907 H         1 UNK         0.1144 
    124 H124      -81.8660   27.6336  -77.2099 H         1 UNK         0.0793 
    125 H125      -81.0003   26.1473  -76.8326 H         1 UNK         0.0793 
    126 H126      -80.6097   27.0560  -78.2880 H         1 UNK         0.0793 
    127 H127      -79.8724   27.4221  -74.4318 H         1 UNK         0.2896 
@<TRIPOS>BOND
     1    1    2 1    
     2    1   67 1    
     3    1   68 1    
     4    1   69 1    
     5    2    3 2    
     6    2    4 am   BACKBONE|DICT|INTERRES
     7    4    5 1    
     8    4   70 1    
     9    5    6 1    
    10    5   65 1    
    11    5   71 1    
    12    6    7 1    
    13    6   72 1    
    14    6   73 1    
    15    7    8 1    
    16    8    9 1    
    17    8   74 1    
    18    8   75 1    
    19    9   10 ar   
    20    9   14 ar   
    21   10   11 ar   
    22   10   76 1    
    23   11   12 ar   
    24   11   48 1    
    25   12   13 ar   
    26   12   77 1    
    27   13   14 ar   
    28   13   15 1    
    29   14   78 1    
    30   15   16 1    
    31   15   79 1    
    32   15   80 1    
    33   16   17 1    
    34   17   18 1    
    35   17   81 1    
    36   17   82 1    
    37   18   19 1    
    38   18   22 1    
    39   18   83 1    
    40   19   20 am   BACKBONE|DICT|INTERRES
    41   19   21 2    
    42   20   84 1    
    43   20   85 1    
    44   22   23 am   BACKBONE|DICT|INTERRES
    45   22   86 1    
    46   23   24 2    
    47   23   25 1    
    48   25   26 1    
    49   25   27 1    
    50   25   87 1    
    51   26   88 1    
    52   26   89 1    
    53   26   90 1    
    54   27   28 am   BACKBONE|DICT|INTERRES
    55   27   91 1    
    56   28   29 2    
    57   28   30 1    
    58   30   31 1    
    59   30   32 1    
    60   30   92 1    
    61   31   93 1    
    62   31   94 1    
    63   31   95 1    
    64   32   33 am   BACKBONE|DICT|INTERRES
    65   32   96 1    
    66   33   34 2    
    67   33   35 1    
    68   35   36 1    
    69   35   37 1    
    70   35   97 1    
    71   36   98 1    
    72   36   99 1    
    73   36  100 1    
    74   37   38 am   BACKBONE|DICT|INTERRES
    75   37  101 1    
    76   38   39 2    
    77   38   40 1    
    78   40   41 1    
    79   40   42 1    
    80   40  102 1    
    81   41  103 1    
    82   41  104 1    
    83   41  105 1    
    84   42   43 am   BACKBONE|DICT|INTERRES
    85   42  106 1    
    86   43   44 2    
    87   43   45 1    
    88   45   46 1    
    89   45   49 1    
    90   45  107 1    
    91   46   47 1    
    92   46  108 1    
    93   46  109 1    
    94   47   48 1    
    95   48  110 1    
    96   48  111 1    
    97   49   50 am   BACKBONE|DICT|INTERRES
    98   49  112 1    
    99   50   51 2    
   100   50   52 1    
   101   52   53 1    
   102   52   54 1    
   103   52  113 1    
   104   53  114 1    
   105   53  115 1    
   106   53  116 1    
   107   54   55 am   BACKBONE|DICT|INTERRES
   108   54  117 1    
   109   55   56 2    
   110   55   57 1    
   111   57   58 1    
   112   57   59 1    
   113   57  118 1    
   114   58  119 1    
   115   58  120 1    
   116   58  121 1    
   117   59   60 am   BACKBONE|DICT|INTERRES
   118   59  122 1    
   119   60   61 2    
   120   60   62 1    
   121   62   63 1    
   122   62   64 1    
   123   62  123 1    
   124   63  124 1    
   125   63  125 1    
   126   63  126 1    
   127   64   65 am   BACKBONE|DICT|INTERRES
   128   64  127 1    
   129   65   66 2    
@<TRIPOS>SUBSTRUCTURE
     1 UNK         1 GROUP             0       ****    0 ROOT    
