@<TRIPOS>MOLECULE
3R135
127   129    1
SMALL
USER_CHARGES


@<TRIPOS>ATOM
      1 CA        -79.7029   23.4286  -69.7732 C.3       0 UNK        -0.1998 
      2 C         -80.8322   24.2626  -70.3592 C.2       0 UNK         0.4909 
      3 O         -81.9991   23.8928  -70.2286 O.2       0 UNK        -0.5240 
      4 N         -80.4912   25.3864  -71.0039 N.am      1 UNK        -0.4739 
      5 CA        -81.4371   26.3217  -71.6315 C.3       1 UNK         0.0864 
      6 C6        -80.7451   27.6410  -72.0483 C.3       11 UNK        -0.0881 
      7 S7        -79.9684   28.5307  -70.6557 S.3       11 UNK        -0.2682 
      8 C8        -78.1906   28.4325  -71.0796 C.3       11 UNK         0.0289 
      9 C9        -77.7184   29.2868  -72.2617 C.ar      11 UNK        -0.0687 
     10 C10       -78.5960   29.9375  -73.1400 C.ar      11 UNK        -0.0823 
     11 C11       -78.1124   30.6561  -74.2356 C.ar      11 UNK        -0.0830 
     12 C12       -76.7353   30.8001  -74.4110 C.ar      11 UNK        -0.1021 
     13 C13       -75.8450   30.1433  -73.5597 C.ar      11 UNK        -0.0753 
     14 C14       -76.3427   29.3818  -72.4973 C.ar      11 UNK        -0.0933 
     15 C15       -74.3575   30.1710  -73.8659 C.3       11 UNK         0.0166 
     16 S16       -73.4363   31.4129  -72.9092 S.3       11 UNK        -0.2615 
     17 C17       -73.0634   30.5448  -71.3452 C.3       11 UNK        -0.0865 
     18 CA        -71.6787   29.8266  -71.3590 C.3       10 UNK         0.0862 
     19 C         -71.1467   29.5024  -69.9267 C.2       10 UNK         0.5551 
     20 N         -70.3610   28.4487  -69.7389 N.am      10 UNK        -0.7319 
     21 O         -71.4167   30.2318  -68.9753 O.2       10 UNK        -0.5018 
     22 N         -71.6270   28.6911  -72.3029 N.am      10 UNK        -0.4509 
     23 C         -72.3176   27.5458  -72.2096 C.2       10 UNK         0.4899 
     24 O         -73.1289   27.3034  -71.3149 O.2       10 UNK        -0.4839 
     25 CA        -72.0765   26.5158  -73.3295 C.3       9 UNK         0.0222 
     26 CB        -72.7449   25.1587  -73.0421 C.3       9 UNK        -0.1966 
     27 N         -72.5581   27.0095  -74.6198 N.am      9 UNK        -0.4218 
     28 C         -71.9021   27.8524  -75.4282 C.2       9 UNK         0.5020 
     29 O         -70.8013   28.3372  -75.1553 O.2       9 UNK        -0.5274 
     30 CA        -72.6081   28.2075  -76.7524 C.3       8 UNK         0.0270 
     31 CB        -71.7111   28.9923  -77.7324 C.3       8 UNK        -0.1976 
     32 N         -73.2007   27.0309  -77.3981 N.am      8 UNK        -0.4313 
     33 C         -72.5692   25.9336  -77.8426 C.2       8 UNK         0.5041 
     34 O         -71.3456   25.7922  -77.8428 O.2       8 UNK        -0.5577 
     35 CA        -73.4472   24.7749  -78.3507 C.3       7 UNK         0.0284 
     36 CB        -73.4719   23.6403  -77.3124 C.3       7 UNK        -0.1958 
     37 N         -74.8264   25.1668  -78.6522 N.am      7 UNK        -0.4454 
     38 C         -75.2107   25.8864  -79.7146 C.2       7 UNK         0.5089 
     39 O         -74.4437   26.2742  -80.5960 O.2       7 UNK        -0.5125 
     40 CA        -76.7023   26.2594  -79.7868 C.3       6 UNK         0.0408 
     41 CB        -77.5259   25.1052  -80.3803 C.3       6 UNK        -0.1791 
     42 N         -77.2547   26.6410  -78.4826 N.am      6 UNK        -0.4762 
     43 C         -76.9152   27.7503  -77.8081 C.2       6 UNK         0.5007 
     44 O         -76.0989   28.5745  -78.2204 O.2       6 UNK        -0.5032 
     45 CA        -77.5473   27.9400  -76.4149 C.3       5 UNK         0.0783 
     46 C46       -78.9556   28.5912  -76.4764 C.3       11 UNK        -0.0857 
     47 S47       -78.8900   30.3739  -76.8928 S.3       11 UNK        -0.2512 
     48 C48       -79.0798   31.2051  -75.2742 C.3       11 UNK         0.0225 
     49 N         -77.5471   26.6854  -75.6579 N.am      5 UNK        -0.4615 
     50 C         -76.4395   26.1316  -75.1387 C.2       4 UNK         0.5053 
     51 O         -75.3205   26.6413  -75.2092 O.2       4 UNK        -0.5105 
     52 CA        -76.5860   24.7625  -74.4494 C.3       4 UNK         0.0263 
     53 CB        -76.9168   24.9590  -72.9609 C.3       4 UNK        -0.1981 
     54 N         -77.5982   23.8947  -75.0577 N.am      4 UNK        -0.4224 
     55 C         -77.6428   23.5250  -76.3462 C.2       3 UNK         0.4895 
     56 O         -76.7636   23.7924  -77.1626 O.2       3 UNK        -0.5091 
     57 CA        -78.9043   22.7848  -76.8284 C.3       3 UNK         0.0250 
     58 CB        -78.6328   21.2753  -76.9222 C.3       3 UNK        -0.1996 
     59 N         -80.1048   23.0139  -76.0122 N.am      3 UNK        -0.4254 
     60 C         -80.6573   24.2061  -75.7395 C.2       2 UNK         0.5004 
     61 O         -80.1891   25.2807  -76.1237 O.2       2 UNK        -0.5226 
     62 CA        -81.8892   24.2176  -74.8255 C.3       2 UNK         0.0269 
     63 CB        -82.5220   22.8329  -74.5707 C.3       2 UNK        -0.1926 
     64 N         -81.4735   24.8059  -73.5569 N.am      2 UNK        -0.4687 
     65 C         -82.1538   25.7231  -72.8614 C.2       1 UNK         0.5165 
     66 O         -83.2797   26.1205  -73.1651 O.2       1 UNK        -0.5079 
     67 H67       -78.7252   23.8694  -69.9676 H         1 UNK         0.0900 
     68 H68       -79.7145   22.4271  -70.2025 H         1 UNK         0.0900 
     69 H69       -79.8251   23.3382  -68.6942 H         1 UNK         0.0900 
     70 H70       -79.5218   25.6639  -71.0315 H         1 UNK         0.2959 
     71 H71       -82.2100   26.5554  -70.8956 H         1 UNK         0.1079 
     72 H72       -79.9991   27.4475  -72.8222 H         1 UNK         0.0837 
     73 H73       -81.4732   28.3213  -72.4956 H         1 UNK         0.0837 
     74 H74       -77.6284   28.7321  -70.1938 H         1 UNK         0.0685 
     75 H75       -77.9282   27.3913  -71.2676 H         1 UNK         0.0685 
     76 H76       -79.6638   29.8647  -73.0078 H         1 UNK         0.1434 
     77 H77       -76.3606   31.3545  -75.2610 H         1 UNK         0.1329 
     78 H78       -75.6588   28.8386  -71.8608 H         1 UNK         0.1335 
     79 H79       -74.2067   30.3903  -74.9231 H         1 UNK         0.0680 
     80 H80       -73.9443   29.1806  -73.7061 H         1 UNK         0.0680 
     81 H81       -73.8614   29.8533  -71.0833 H         1 UNK         0.1032 
     82 H82       -73.0863   31.3137  -70.5711 H         1 UNK         0.1032 
     83 H83       -70.9541   30.5448  -71.7443 H         1 UNK         0.0461 
     84 H84       -70.1168   27.8507  -70.5117 H         1 UNK         0.3453 
     85 H85       -70.0108   28.2511  -68.8148 H         1 UNK         0.3453 
     86 H86       -71.0155   28.8050  -73.1041 H         1 UNK         0.2984 
     87 H87       -70.9997   26.3458  -73.3943 H         1 UNK         0.0554 
     88 H88       -73.8284   25.2507  -72.9699 H         1 UNK         0.0847 
     89 H89       -72.3897   24.7397  -72.0998 H         1 UNK         0.0847 
     90 H90       -72.5221   24.4326  -73.8242 H         1 UNK         0.0847 
     91 H91       -73.5048   26.7399  -74.8836 H         1 UNK         0.3141 
     92 H92       -73.4474   28.8519  -76.4914 H         1 UNK         0.0743 
     93 H93       -70.8184   28.4292  -78.0063 H         1 UNK         0.0784 
     94 H94       -72.2476   29.2386  -78.6488 H         1 UNK         0.0784 
     95 H95       -71.3786   29.9315  -77.2887 H         1 UNK         0.0784 
     96 H96       -74.2118   27.0201  -77.4261 H         1 UNK         0.3213 
     97 H97       -72.9908   24.3947  -79.2671 H         1 UNK         0.0855 
     98 H98       -73.9160   23.9674  -76.3715 H         1 UNK         0.0814 
     99 H99       -72.4633   23.2877  -77.0923 H         1 UNK         0.0814 
    100 H100      -74.0434   22.7845  -77.6723 H         1 UNK         0.0814 
    101 H101      -75.5474   24.8163  -78.0219 H         1 UNK         0.3105 
    102 H102      -76.7975   27.1187  -80.4540 H         1 UNK         0.0547 
    103 H103      -77.1542   24.8319  -81.3688 H         1 UNK         0.0837 
    104 H104      -77.4810   24.2103  -79.7590 H         1 UNK         0.0837 
    105 H105      -78.5737   25.3824  -80.4953 H         1 UNK         0.0837 
    106 H106      -77.8950   25.9908  -78.0492 H         1 UNK         0.3020 
    107 H107      -76.8870   28.6197  -75.8772 H         1 UNK         0.1245 
    108 H108      -79.4649   28.4790  -75.5183 H         1 UNK         0.0781 
    109 H109      -79.5900   28.0798  -77.2029 H         1 UNK         0.0781 
    110 H110      -80.1135   31.0975  -74.9420 H         1 UNK         0.0836 
    111 H111      -78.9075   32.2750  -75.3995 H         1 UNK         0.0836 
    112 H112      -78.4288   26.1850  -75.6093 H         1 UNK         0.3022 
    113 H113      -75.6249   24.2510  -74.5281 H         1 UNK         0.0747 
    114 H114      -76.9020   24.0118  -72.4214 H         1 UNK         0.0793 
    115 H115      -76.1903   25.6158  -72.4795 H         1 UNK         0.0793 
    116 H116      -77.8997   25.4106  -72.8257 H         1 UNK         0.0793 
    117 H117      -78.3551   23.5962  -74.4629 H         1 UNK         0.3047 
    118 H118      -79.1225   23.1553  -77.8322 H         1 UNK         0.0822 
    119 H119      -79.4748   20.7465  -77.3690 H         1 UNK         0.0807 
    120 H120      -78.4410   20.8372  -75.9418 H         1 UNK         0.0807 
    121 H121      -77.7601   21.0734  -77.5455 H         1 UNK         0.0807 
    122 H122      -80.5546   22.1899  -75.6394 H         1 UNK         0.2946 
    123 H123      -82.6295   24.8551  -75.3150 H         1 UNK         0.1144 
    124 H124      -82.8072   22.3484  -75.5057 H         1 UNK         0.0793 
    125 H125      -83.4299   22.9289  -73.9748 H         1 UNK         0.0793 
    126 H126      -81.8509   22.1632  -74.0314 H         1 UNK         0.0793 
    127 H127      -80.5516   24.5596  -73.2291 H         1 UNK         0.2896 
@<TRIPOS>BOND
     1    1    2 1    
     2    1   67 1    
     3    1   68 1    
     4    1   69 1    
     5    2    3 2    
     6    2    4 am   BACKBONE|DICT|INTERRES
     7    4    5 1    
     8    4   70 1    
     9    5    6 1    
    10    5   65 1    
    11    5   71 1    
    12    6    7 1    
    13    6   72 1    
    14    6   73 1    
    15    7    8 1    
    16    8    9 1    
    17    8   74 1    
    18    8   75 1    
    19    9   10 ar   
    20    9   14 ar   
    21   10   11 ar   
    22   10   76 1    
    23   11   12 ar   
    24   11   48 1    
    25   12   13 ar   
    26   12   77 1    
    27   13   14 ar   
    28   13   15 1    
    29   14   78 1    
    30   15   16 1    
    31   15   79 1    
    32   15   80 1    
    33   16   17 1    
    34   17   18 1    
    35   17   81 1    
    36   17   82 1    
    37   18   19 1    
    38   18   22 1    
    39   18   83 1    
    40   19   20 am   BACKBONE|DICT|INTERRES
    41   19   21 2    
    42   20   84 1    
    43   20   85 1    
    44   22   23 am   BACKBONE|DICT|INTERRES
    45   22   86 1    
    46   23   24 2    
    47   23   25 1    
    48   25   26 1    
    49   25   27 1    
    50   25   87 1    
    51   26   88 1    
    52   26   89 1    
    53   26   90 1    
    54   27   28 am   BACKBONE|DICT|INTERRES
    55   27   91 1    
    56   28   29 2    
    57   28   30 1    
    58   30   31 1    
    59   30   32 1    
    60   30   92 1    
    61   31   93 1    
    62   31   94 1    
    63   31   95 1    
    64   32   33 am   BACKBONE|DICT|INTERRES
    65   32   96 1    
    66   33   34 2    
    67   33   35 1    
    68   35   36 1    
    69   35   37 1    
    70   35   97 1    
    71   36   98 1    
    72   36   99 1    
    73   36  100 1    
    74   37   38 am   BACKBONE|DICT|INTERRES
    75   37  101 1    
    76   38   39 2    
    77   38   40 1    
    78   40   41 1    
    79   40   42 1    
    80   40  102 1    
    81   41  103 1    
    82   41  104 1    
    83   41  105 1    
    84   42   43 am   BACKBONE|DICT|INTERRES
    85   42  106 1    
    86   43   44 2    
    87   43   45 1    
    88   45   46 1    
    89   45   49 1    
    90   45  107 1    
    91   46   47 1    
    92   46  108 1    
    93   46  109 1    
    94   47   48 1    
    95   48  110 1    
    96   48  111 1    
    97   49   50 am   BACKBONE|DICT|INTERRES
    98   49  112 1    
    99   50   51 2    
   100   50   52 1    
   101   52   53 1    
   102   52   54 1    
   103   52  113 1    
   104   53  114 1    
   105   53  115 1    
   106   53  116 1    
   107   54   55 am   BACKBONE|DICT|INTERRES
   108   54  117 1    
   109   55   56 2    
   110   55   57 1    
   111   57   58 1    
   112   57   59 1    
   113   57  118 1    
   114   58  119 1    
   115   58  120 1    
   116   58  121 1    
   117   59   60 am   BACKBONE|DICT|INTERRES
   118   59  122 1    
   119   60   61 2    
   120   60   62 1    
   121   62   63 1    
   122   62   64 1    
   123   62  123 1    
   124   63  124 1    
   125   63  125 1    
   126   63  126 1    
   127   64   65 am   BACKBONE|DICT|INTERRES
   128   64  127 1    
   129   65   66 2    
@<TRIPOS>SUBSTRUCTURE
     1 UNK         1 GROUP             0       ****    0 ROOT    
