@<TRIPOS>MOLECULE
3R135
127   129    1
SMALL
USER_CHARGES


@<TRIPOS>ATOM
      1 CA        -75.7300   27.8001  -71.6732 C.3       0 UNK        -0.1998 
      2 C         -76.7205   26.7373  -71.2344 C.2       0 UNK         0.4909 
      3 O         -76.3481   25.7957  -70.5328 O.2       0 UNK        -0.5240 
      4 N         -77.9885   26.9030  -71.6232 N.am      1 UNK        -0.4739 
      5 CA        -79.0921   26.0110  -71.2566 C.3       1 UNK         0.0864 
      6 C6        -80.4567   26.7418  -71.3078 C.3       11 UNK        -0.0881 
      7 S7        -80.4959   28.1349  -70.1253 S.3       11 UNK        -0.2682 
      8 C8        -81.0073   29.5407  -71.1628 C.3       11 UNK         0.0289 
      9 C9        -80.0538   29.8126  -72.3192 C.ar      11 UNK        -0.0687 
     10 C10       -80.4763   29.5940  -73.6316 C.ar      11 UNK        -0.0823 
     11 C11       -79.6362   29.8773  -74.7125 C.ar      11 UNK        -0.0830 
     12 C12       -78.3636   30.4028  -74.4672 C.ar      11 UNK        -0.1021 
     13 C13       -77.9238   30.6305  -73.1562 C.ar      11 UNK        -0.0753 
     14 C14       -78.7753   30.3279  -72.0875 C.ar      11 UNK        -0.0933 
     15 C15       -76.5707   31.2791  -72.8759 C.3       11 UNK         0.0166 
     16 S16       -75.2148   30.6361  -73.9089 S.3       11 UNK        -0.2615 
     17 C17       -73.8371   31.6996  -73.3518 C.3       11 UNK        -0.0865 
     18 CA        -72.5394   30.9218  -73.0091 C.3       10 UNK         0.0862 
     19 C         -72.6356   30.1120  -71.6805 C.2       10 UNK         0.5551 
     20 N         -72.2180   28.8517  -71.6287 N.am      10 UNK        -0.7319 
     21 O         -73.0805   30.6462  -70.6676 O.2       10 UNK        -0.5018 
     22 N         -72.0711   30.1488  -74.1667 N.am      10 UNK        -0.4509 
     23 C         -70.7951   29.8690  -74.4503 C.2       10 UNK         0.4899 
     24 O         -69.8357   30.2977  -73.8070 O.2       10 UNK        -0.4839 
     25 CA        -70.5747   28.9347  -75.6539 C.3       9 UNK         0.0222 
     26 CB        -69.1147   28.4516  -75.7874 C.3       9 UNK        -0.1966 
     27 N         -71.5062   27.7984  -75.6604 N.am      9 UNK        -0.4218 
     28 C         -71.6275   26.8383  -74.7262 C.2       9 UNK         0.5020 
     29 O         -70.9710   26.8219  -73.6840 O.2       9 UNK        -0.5274 
     30 CA        -72.6656   25.7182  -74.9591 C.3       8 UNK         0.0270 
     31 CB        -73.6787   25.6674  -73.8055 C.3       8 UNK        -0.1976 
     32 N         -73.3993   25.8550  -76.2183 N.am      8 UNK        -0.4313 
     33 C         -72.9073   25.5629  -77.4314 C.2       8 UNK         0.5041 
     34 O         -71.8205   25.0127  -77.6094 O.2       8 UNK        -0.5577 
     35 CA        -73.7352   25.9982  -78.6560 C.3       7 UNK         0.0284 
     36 CB        -74.3173   24.7746  -79.3820 C.3       7 UNK        -0.1958 
     37 N         -74.8039   26.9566  -78.3377 N.am      7 UNK        -0.4454 
     38 C         -74.5874   28.2176  -77.9247 C.2       7 UNK         0.5089 
     39 O         -73.4601   28.6925  -77.7787 O.2       7 UNK        -0.5125 
     40 CA        -75.8095   29.0854  -77.5674 C.3       6 UNK         0.0408 
     41 CB        -76.1401   30.0484  -78.7174 C.3       6 UNK        -0.1791 
     42 N         -77.0092   28.3205  -77.2197 N.am      6 UNK        -0.4762 
     43 C         -77.1313   27.5132  -76.1561 C.2       6 UNK         0.5007 
     44 O         -76.2233   27.3388  -75.3419 O.2       6 UNK        -0.5032 
     45 CA        -78.4405   26.7001  -76.0034 C.3       5 UNK         0.0783 
     46 C46       -79.5666   27.0176  -77.0411 C.3       11 UNK        -0.0857 
     47 S47       -80.9164   28.0542  -76.3960 S.3       11 UNK        -0.2512 
     48 C48       -80.1339   29.6827  -76.1412 C.3       11 UNK         0.0225 
     49 N         -78.1104   25.2729  -75.9772 N.am      5 UNK        -0.4615 
     50 C         -77.5383   24.5947  -76.9820 C.2       4 UNK         0.5053 
     51 O         -77.2522   25.0968  -78.0699 O.2       4 UNK        -0.5105 
     52 CA        -77.2337   23.1109  -76.7347 C.3       4 UNK         0.0263 
     53 CB        -75.9824   22.9541  -75.8548 C.3       4 UNK        -0.1981 
     54 N         -78.3539   22.3992  -76.1194 N.am      4 UNK        -0.4224 
     55 C         -79.5306   22.1419  -76.7121 C.2       3 UNK         0.4895 
     56 O         -79.8026   22.4697  -77.8674 O.2       3 UNK        -0.5091 
     57 CA        -80.5771   21.3642  -75.8903 C.3       3 UNK         0.0250 
     58 CB        -80.6400   19.8981  -76.3506 C.3       3 UNK        -0.1996 
     59 N         -80.3010   21.4021  -74.4513 N.am      3 UNK        -0.4254 
     60 C         -80.5931   22.4387  -73.6550 C.2       2 UNK         0.5004 
     61 O         -81.2713   23.4026  -74.0184 O.2       2 UNK        -0.5226 
     62 CA        -80.0358   22.3869  -72.2153 C.3       2 UNK         0.0269 
     63 CB        -78.7292   21.5683  -72.0888 C.3       2 UNK        -0.1926 
     64 N         -79.8442   23.7195  -71.6261 N.am      2 UNK        -0.4687 
     65 C         -79.0987   24.7258  -72.1110 C.2       1 UNK         0.5165 
     66 O         -78.4575   24.6674  -73.1662 O.2       1 UNK        -0.5079 
     67 H67       -74.7072   27.4460  -71.5543 H         1 UNK         0.0900 
     68 H68       -75.8835   28.0566  -72.7206 H         1 UNK         0.0900 
     69 H69       -75.8473   28.7025  -71.0741 H         1 UNK         0.0900 
     70 H70       -78.2369   27.6959  -72.1977 H         1 UNK         0.2959 
     71 H71       -78.9281   25.6928  -70.2240 H         1 UNK         0.1079 
     72 H72       -81.2722   26.0674  -71.0408 H         1 UNK         0.0837 
     73 H73       -80.6724   27.0854  -72.3203 H         1 UNK         0.0837 
     74 H74       -82.0190   29.3566  -71.5278 H         1 UNK         0.0685 
     75 H75       -81.0694   30.4321  -70.5370 H         1 UNK         0.0685 
     76 H76       -81.4727   29.2152  -73.8151 H         1 UNK         0.1434 
     77 H77       -77.7198   30.6559  -75.2985 H         1 UNK         0.1329 
     78 H78       -78.4568   30.5166  -71.0712 H         1 UNK         0.1335 
     79 H79       -76.6646   32.3530  -73.0424 H         1 UNK         0.0680 
     80 H80       -76.2953   31.1470  -71.8283 H         1 UNK         0.0680 
     81 H81       -73.6289   32.4132  -74.1504 H         1 UNK         0.1032 
     82 H82       -74.1492   32.3078  -72.5008 H         1 UNK         0.1032 
     83 H83       -71.7832   31.6822  -72.8049 H         1 UNK         0.0461 
     84 H84       -72.2734   28.3555  -70.7543 H         1 UNK         0.3453 
     85 H85       -71.8084   28.4011  -72.4363 H         1 UNK         0.3453 
     86 H86       -72.7985   29.7401  -74.7358 H         1 UNK         0.2984 
     87 H87       -70.8084   29.5229  -76.5425 H         1 UNK         0.0554 
     88 H88       -68.9876   27.8094  -76.6589 H         1 UNK         0.0847 
     89 H89       -68.7894   27.8932  -74.9090 H         1 UNK         0.0847 
     90 H90       -68.4334   29.2951  -75.9055 H         1 UNK         0.0847 
     91 H91       -72.1365   27.7726  -76.4550 H         1 UNK         0.3141 
     92 H92       -72.1203   24.7723  -74.9750 H         1 UNK         0.0743 
     93 H93       -73.1828   25.5150  -72.8460 H         1 UNK         0.0784 
     94 H94       -74.2398   26.5981  -73.7401 H         1 UNK         0.0784 
     95 H95       -74.3929   24.8544  -73.9325 H         1 UNK         0.0784 
     96 H96       -74.3026   26.3106  -76.1602 H         1 UNK         0.3213 
     97 H97       -73.0478   26.4961  -79.3436 H         1 UNK         0.0855 
     98 H98       -74.9179   24.1544  -78.7178 H         1 UNK         0.0814 
     99 H99       -73.5188   24.1421  -79.7720 H         1 UNK         0.0814 
    100 H100      -74.9403   25.0672  -80.2274 H         1 UNK         0.0814 
    101 H101      -75.7562   26.6101  -78.3907 H         1 UNK         0.3105 
    102 H102      -75.5354   29.6826  -76.6966 H         1 UNK         0.0547 
    103 H103      -75.2720   30.6554  -78.9786 H         1 UNK         0.0837 
    104 H104      -76.4463   29.5142  -79.6177 H         1 UNK         0.0837 
    105 H105      -76.9406   30.7355  -78.4430 H         1 UNK         0.0837 
    106 H106      -77.7764   28.3718  -77.8733 H         1 UNK         0.3020 
    107 H107      -78.8114   26.9252  -75.0017 H         1 UNK         0.1245 
    108 H108      -80.0610   26.0879  -77.3294 H         1 UNK         0.0781 
    109 H109      -79.2111   27.4182  -77.9899 H         1 UNK         0.0781 
    110 H110      -80.8773   30.4541  -76.3465 H         1 UNK         0.0836 
    111 H111      -79.3360   29.8344  -76.8683 H         1 UNK         0.0836 
    112 H112      -78.2541   24.8156  -75.0800 H         1 UNK         0.3022 
    113 H113      -77.0313   22.6480  -77.7030 H         1 UNK         0.0747 
    114 H114      -75.6992   21.9065  -75.7510 H         1 UNK         0.0793 
    115 H115      -75.1290   23.4761  -76.2885 H         1 UNK         0.0793 
    116 H116      -76.1388   23.3599  -74.8542 H         1 UNK         0.0793 
    117 H117      -78.2300   22.1036  -75.1634 H         1 UNK         0.3047 
    118 H118      -81.5504   21.8228  -76.0792 H         1 UNK         0.0822 
    119 H119      -81.4142   19.3472  -75.8160 H         1 UNK         0.0807 
    120 H120      -79.6913   19.3827  -76.1950 H         1 UNK         0.0807 
    121 H121      -80.8750   19.8330  -77.4140 H         1 UNK         0.0807 
    122 H122      -79.7787   20.6271  -74.0681 H         1 UNK         0.2946 
    123 H123      -80.8017   21.8917  -71.6159 H         1 UNK         0.1144 
    124 H124      -78.3478   21.5972  -71.0679 H         1 UNK         0.0793 
    125 H125      -77.9433   21.9509  -72.7413 H         1 UNK         0.0793 
    126 H126      -78.8842   20.5166  -72.3314 H         1 UNK         0.0793 
    127 H127      -80.3601   23.8837  -70.7727 H         1 UNK         0.2896 
@<TRIPOS>BOND
     1    1    2 1    
     2    1   67 1    
     3    1   68 1    
     4    1   69 1    
     5    2    3 2    
     6    2    4 am   BACKBONE|DICT|INTERRES
     7    4    5 1    
     8    4   70 1    
     9    5    6 1    
    10    5   65 1    
    11    5   71 1    
    12    6    7 1    
    13    6   72 1    
    14    6   73 1    
    15    7    8 1    
    16    8    9 1    
    17    8   74 1    
    18    8   75 1    
    19    9   10 ar   
    20    9   14 ar   
    21   10   11 ar   
    22   10   76 1    
    23   11   12 ar   
    24   11   48 1    
    25   12   13 ar   
    26   12   77 1    
    27   13   14 ar   
    28   13   15 1    
    29   14   78 1    
    30   15   16 1    
    31   15   79 1    
    32   15   80 1    
    33   16   17 1    
    34   17   18 1    
    35   17   81 1    
    36   17   82 1    
    37   18   19 1    
    38   18   22 1    
    39   18   83 1    
    40   19   20 am   BACKBONE|DICT|INTERRES
    41   19   21 2    
    42   20   84 1    
    43   20   85 1    
    44   22   23 am   BACKBONE|DICT|INTERRES
    45   22   86 1    
    46   23   24 2    
    47   23   25 1    
    48   25   26 1    
    49   25   27 1    
    50   25   87 1    
    51   26   88 1    
    52   26   89 1    
    53   26   90 1    
    54   27   28 am   BACKBONE|DICT|INTERRES
    55   27   91 1    
    56   28   29 2    
    57   28   30 1    
    58   30   31 1    
    59   30   32 1    
    60   30   92 1    
    61   31   93 1    
    62   31   94 1    
    63   31   95 1    
    64   32   33 am   BACKBONE|DICT|INTERRES
    65   32   96 1    
    66   33   34 2    
    67   33   35 1    
    68   35   36 1    
    69   35   37 1    
    70   35   97 1    
    71   36   98 1    
    72   36   99 1    
    73   36  100 1    
    74   37   38 am   BACKBONE|DICT|INTERRES
    75   37  101 1    
    76   38   39 2    
    77   38   40 1    
    78   40   41 1    
    79   40   42 1    
    80   40  102 1    
    81   41  103 1    
    82   41  104 1    
    83   41  105 1    
    84   42   43 am   BACKBONE|DICT|INTERRES
    85   42  106 1    
    86   43   44 2    
    87   43   45 1    
    88   45   46 1    
    89   45   49 1    
    90   45  107 1    
    91   46   47 1    
    92   46  108 1    
    93   46  109 1    
    94   47   48 1    
    95   48  110 1    
    96   48  111 1    
    97   49   50 am   BACKBONE|DICT|INTERRES
    98   49  112 1    
    99   50   51 2    
   100   50   52 1    
   101   52   53 1    
   102   52   54 1    
   103   52  113 1    
   104   53  114 1    
   105   53  115 1    
   106   53  116 1    
   107   54   55 am   BACKBONE|DICT|INTERRES
   108   54  117 1    
   109   55   56 2    
   110   55   57 1    
   111   57   58 1    
   112   57   59 1    
   113   57  118 1    
   114   58  119 1    
   115   58  120 1    
   116   58  121 1    
   117   59   60 am   BACKBONE|DICT|INTERRES
   118   59  122 1    
   119   60   61 2    
   120   60   62 1    
   121   62   63 1    
   122   62   64 1    
   123   62  123 1    
   124   63  124 1    
   125   63  125 1    
   126   63  126 1    
   127   64   65 am   BACKBONE|DICT|INTERRES
   128   64  127 1    
   129   65   66 2    
@<TRIPOS>SUBSTRUCTURE
     1 UNK         1 GROUP             0       ****    0 ROOT    
