@<TRIPOS>MOLECULE
3R135
127   129    1
SMALL
USER_CHARGES


@<TRIPOS>ATOM
      1 CA        -80.5153   23.8294  -71.6203 C.3       0 UNK        -0.1998 
      2 C         -80.7112   24.8918  -72.6899 C.2       0 UNK         0.4909 
      3 O         -79.8794   25.0172  -73.5905 O.2       0 UNK        -0.5240 
      4 N         -81.8153   25.6461  -72.5909 N.am      1 UNK        -0.4739 
      5 CA        -82.1996   26.7593  -73.4754 C.3       1 UNK         0.0864 
      6 C6        -81.2806   28.0020  -73.3185 C.3       11 UNK        -0.0881 
      7 S7        -81.4518   28.7270  -71.6553 S.3       11 UNK        -0.2682 
      8 C8        -80.2062   30.0591  -71.7122 C.3       11 UNK         0.0289 
      9 C9        -78.7638   29.6258  -71.4437 C.ar      11 UNK        -0.0687 
     10 C10       -78.4457   28.4702  -70.7171 C.ar      11 UNK        -0.0823 
     11 C11       -77.1147   28.1456  -70.4353 C.ar      11 UNK        -0.0830 
     12 C12       -76.0915   28.9863  -70.8828 C.ar      11 UNK        -0.1021 
     13 C13       -76.3929   30.1468  -71.5998 C.ar      11 UNK        -0.0753 
     14 C14       -77.7268   30.4562  -71.8799 C.ar      11 UNK        -0.0933 
     15 C15       -75.2869   31.0957  -72.0314 C.3       11 UNK         0.0166 
     16 S16       -74.8905   30.9069  -73.7945 S.3       11 UNK        -0.2615 
     17 C17       -73.7114   32.2872  -74.0161 C.3       11 UNK        -0.0865 
     18 CA        -72.2337   31.8506  -74.1957 C.3       10 UNK         0.0862 
     19 C         -71.6063   31.2919  -72.8873 C.2       10 UNK         0.5551 
     20 N         -71.3222   32.1585  -71.9243 N.am      10 UNK        -0.7319 
     21 O         -71.3978   30.0914  -72.7230 O.2       10 UNK        -0.5018 
     22 N         -72.0884   30.9407  -75.3365 N.am      10 UNK        -0.4509 
     23 C         -70.9652   30.7626  -76.0387 C.2       10 UNK         0.4899 
     24 O         -69.9278   31.4047  -75.8629 O.2       10 UNK        -0.4839 
     25 CA        -71.0411   29.6738  -77.1193 C.3       9 UNK         0.0222 
     26 CB        -69.7988   29.6211  -78.0354 C.3       9 UNK        -0.1966 
     27 N         -71.3408   28.3667  -76.5270 N.am      9 UNK        -0.4218 
     28 C         -70.5578   27.6226  -75.7261 C.2       9 UNK         0.5020 
     29 O         -69.4161   27.9407  -75.3901 O.2       9 UNK        -0.5274 
     30 CA        -71.1274   26.2839  -75.2059 C.3       8 UNK         0.0270 
     31 CB        -71.3774   26.3644  -73.6908 C.3       8 UNK        -0.1976 
     32 N         -72.3625   25.8622  -75.8756 N.am      8 UNK        -0.4313 
     33 C         -72.4448   25.4858  -77.1618 C.2       8 UNK         0.5041 
     34 O         -71.4570   25.3014  -77.8740 O.2       8 UNK        -0.5577 
     35 CA        -73.8461   25.3291  -77.7886 C.3       7 UNK         0.0284 
     36 CB        -74.1628   23.8424  -78.0215 C.3       7 UNK        -0.1958 
     37 N         -74.9436   25.9361  -77.0277 N.am      7 UNK        -0.4454 
     38 C         -75.0504   27.2175  -76.6462 C.2       7 UNK         0.5089 
     39 O         -74.2437   28.0945  -76.9600 O.2       7 UNK        -0.5125 
     40 CA        -76.2049   27.5576  -75.6824 C.3       6 UNK         0.0408 
     41 CB        -77.4284   28.0726  -76.4531 C.3       6 UNK        -0.1791 
     42 N         -76.6034   26.4440  -74.8098 N.am      6 UNK        -0.4762 
     43 C         -75.7914   25.8212  -73.9395 C.2       6 UNK         0.5007 
     44 O         -74.5969   26.0925  -73.8153 O.2       6 UNK        -0.5032 
     45 CA        -76.3937   24.6691  -73.1130 C.3       5 UNK         0.0783 
     46 C46       -77.0671   25.1661  -71.8132 C.3       11 UNK        -0.0857 
     47 S47       -75.8523   25.6617  -70.5474 S.3       11 UNK        -0.2512 
     48 C48       -76.7869   26.9093  -69.6079 C.3       11 UNK         0.0225 
     49 N         -77.3178   23.8758  -73.9273 N.am      5 UNK        -0.4615 
     50 C         -76.9366   22.8414  -74.6861 C.2       4 UNK         0.5053 
     51 O         -75.7808   22.4198  -74.7370 O.2       4 UNK        -0.5105 
     52 CA        -78.0171   22.1578  -75.5415 C.3       4 UNK         0.0263 
     53 CB        -78.8821   21.2224  -74.6816 C.3       4 UNK        -0.1981 
     54 N         -78.8896   23.0612  -76.2980 N.am      4 UNK        -0.4224 
     55 C         -78.5042   24.0437  -77.1216 C.2       3 UNK         0.4895 
     56 O         -77.3378   24.4109  -77.2468 O.2       3 UNK        -0.5091 
     57 CA        -79.5815   24.7389  -77.9754 C.3       3 UNK         0.0250 
     58 CB        -79.6788   24.0785  -79.3642 C.3       3 UNK        -0.1996 
     59 N         -80.9080   24.8725  -77.3573 N.am      3 UNK        -0.4254 
     60 C         -81.7943   23.9274  -77.0174 C.2       2 UNK         0.5004 
     61 O         -81.5825   22.7180  -77.1207 O.2       2 UNK        -0.5226 
     62 CA        -83.1208   24.4325  -76.4184 C.3       2 UNK         0.0269 
     63 CB        -84.1536   23.3043  -76.2361 C.3       2 UNK        -0.1926 
     64 N         -82.9098   25.0905  -75.1275 N.am      2 UNK        -0.4687 
     65 C         -82.3856   26.3112  -74.9427 C.2       1 UNK         0.5165 
     66 O         -82.0568   27.0508  -75.8733 O.2       1 UNK        -0.5079 
     67 H67       -80.0860   24.2750  -70.7235 H         1 UNK         0.0900 
     68 H68       -81.4620   23.3603  -71.3531 H         1 UNK         0.0900 
     69 H69       -79.8404   23.0489  -71.9689 H         1 UNK         0.0900 
     70 H70       -82.4476   25.4809  -71.8198 H         1 UNK         0.2959 
     71 H71       -83.2012   27.0588  -73.1616 H         1 UNK         0.1079 
     72 H72       -81.5427   28.7790  -74.0391 H         1 UNK         0.0837 
     73 H73       -80.2358   27.7458  -73.5039 H         1 UNK         0.0837 
     74 H74       -80.2735   30.5606  -72.6790 H         1 UNK         0.0685 
     75 H75       -80.4761   30.8035  -70.9621 H         1 UNK         0.0685 
     76 H76       -79.2322   27.8273  -70.3486 H         1 UNK         0.1434 
     77 H77       -75.0617   28.7423  -70.6590 H         1 UNK         0.1329 
     78 H78       -77.9571   31.3622  -72.4242 H         1 UNK         0.1335 
     79 H79       -74.3851   30.9280  -71.4401 H         1 UNK         0.0680 
     80 H80       -75.5993   32.1226  -71.8354 H         1 UNK         0.0680 
     81 H81       -74.0264   32.8426  -74.9008 H         1 UNK         0.1032 
     82 H82       -73.8033   32.9975  -73.1926 H         1 UNK         0.1032 
     83 H83       -71.6704   32.7541  -74.4391 H         1 UNK         0.0461 
     84 H84       -70.9221   31.8176  -71.0642 H         1 UNK         0.3453 
     85 H85       -71.4822   33.1466  -72.0435 H         1 UNK         0.3453 
     86 H86       -72.8796   30.3383  -75.5147 H         1 UNK         0.2984 
     87 H87       -71.8957   29.9209  -77.7512 H         1 UNK         0.0554 
     88 H88       -69.6649   30.5685  -78.5587 H         1 UNK         0.0847 
     89 H89       -69.8975   28.8430  -78.7924 H         1 UNK         0.0847 
     90 H90       -68.8818   29.4314  -77.4772 H         1 UNK         0.0847 
     91 H91       -72.2863   28.0347  -76.6975 H         1 UNK         0.3141 
     92 H92       -70.3709   25.5176  -75.3868 H         1 UNK         0.0743 
     93 H93       -72.0980   27.1459  -73.4442 H         1 UNK         0.0784 
     94 H94       -71.7560   25.4211  -73.2966 H         1 UNK         0.0784 
     95 H95       -70.4561   26.5947  -73.1540 H         1 UNK         0.0784 
     96 H96       -73.2196   25.9673  -75.3398 H         1 UNK         0.3213 
     97 H97       -73.8142   25.8288  -78.7587 H         1 UNK         0.0855 
     98 H98       -74.2836   23.3054  -77.0796 H         1 UNK         0.0814 
     99 H99       -73.3645   23.3510  -78.5794 H         1 UNK         0.0814 
    100 H100      -75.0796   23.7178  -78.5978 H         1 UNK         0.0814 
    101 H101      -75.7156   25.3160  -76.7928 H         1 UNK         0.3105 
    102 H102      -75.8550   28.3600  -75.0311 H         1 UNK         0.0547 
    103 H103      -77.1684   28.9454  -77.0536 H         1 UNK         0.0837 
    104 H104      -77.8217   27.3171  -77.1316 H         1 UNK         0.0837 
    105 H105      -78.2293   28.3725  -75.7769 H         1 UNK         0.0837 
    106 H106      -77.5621   26.1327  -74.8736 H         1 UNK         0.3020 
    107 H107      -75.5600   24.0260  -72.8197 H         1 UNK         0.1245 
    108 H108      -77.6608   24.3635  -71.3753 H         1 UNK         0.0781 
    109 H109      -77.7634   25.9795  -72.0230 H         1 UNK         0.0781 
    110 H110      -76.1969   27.2101  -68.7412 H         1 UNK         0.0836 
    111 H111      -77.6941   26.4491  -69.2129 H         1 UNK         0.0836 
    112 H112      -78.2904   24.1795  -73.9384 H         1 UNK         0.3022 
    113 H113      -77.4941   21.5450  -76.2785 H         1 UNK         0.0747 
    114 H114      -79.5354   20.6079  -75.3014 H         1 UNK         0.0793 
    115 H115      -78.2635   20.5440  -74.0923 H         1 UNK         0.0793 
    116 H116      -79.5109   21.7809  -73.9882 H         1 UNK         0.0793 
    117 H117      -79.8773   22.8231  -76.3225 H         1 UNK         0.3047 
    118 H118      -79.2355   25.7608  -78.1313 H         1 UNK         0.0822 
    119 H119      -80.3710   24.6163  -80.0119 H         1 UNK         0.0807 
    120 H120      -80.0133   23.0425  -79.3012 H         1 UNK         0.0807 
    121 H121      -78.7076   24.0743  -79.8612 H         1 UNK         0.0807 
    122 H122      -81.1725   25.8243  -77.1167 H         1 UNK         0.2946 
    123 H123      -83.5387   25.1578  -77.1208 H         1 UNK         0.1144 
    124 H124      -85.1059   23.6927  -75.8743 H         1 UNK         0.0793 
    125 H125      -83.8086   22.5488  -75.5290 H         1 UNK         0.0793 
    126 H126      -84.3507   22.7991  -77.1827 H         1 UNK         0.0793 
    127 H127      -83.1135   24.5405  -74.3054 H         1 UNK         0.2896 
@<TRIPOS>BOND
     1    1    2 1    
     2    1   67 1    
     3    1   68 1    
     4    1   69 1    
     5    2    3 2    
     6    2    4 am   BACKBONE|DICT|INTERRES
     7    4    5 1    
     8    4   70 1    
     9    5    6 1    
    10    5   65 1    
    11    5   71 1    
    12    6    7 1    
    13    6   72 1    
    14    6   73 1    
    15    7    8 1    
    16    8    9 1    
    17    8   74 1    
    18    8   75 1    
    19    9   10 ar   
    20    9   14 ar   
    21   10   11 ar   
    22   10   76 1    
    23   11   12 ar   
    24   11   48 1    
    25   12   13 ar   
    26   12   77 1    
    27   13   14 ar   
    28   13   15 1    
    29   14   78 1    
    30   15   16 1    
    31   15   79 1    
    32   15   80 1    
    33   16   17 1    
    34   17   18 1    
    35   17   81 1    
    36   17   82 1    
    37   18   19 1    
    38   18   22 1    
    39   18   83 1    
    40   19   20 am   BACKBONE|DICT|INTERRES
    41   19   21 2    
    42   20   84 1    
    43   20   85 1    
    44   22   23 am   BACKBONE|DICT|INTERRES
    45   22   86 1    
    46   23   24 2    
    47   23   25 1    
    48   25   26 1    
    49   25   27 1    
    50   25   87 1    
    51   26   88 1    
    52   26   89 1    
    53   26   90 1    
    54   27   28 am   BACKBONE|DICT|INTERRES
    55   27   91 1    
    56   28   29 2    
    57   28   30 1    
    58   30   31 1    
    59   30   32 1    
    60   30   92 1    
    61   31   93 1    
    62   31   94 1    
    63   31   95 1    
    64   32   33 am   BACKBONE|DICT|INTERRES
    65   32   96 1    
    66   33   34 2    
    67   33   35 1    
    68   35   36 1    
    69   35   37 1    
    70   35   97 1    
    71   36   98 1    
    72   36   99 1    
    73   36  100 1    
    74   37   38 am   BACKBONE|DICT|INTERRES
    75   37  101 1    
    76   38   39 2    
    77   38   40 1    
    78   40   41 1    
    79   40   42 1    
    80   40  102 1    
    81   41  103 1    
    82   41  104 1    
    83   41  105 1    
    84   42   43 am   BACKBONE|DICT|INTERRES
    85   42  106 1    
    86   43   44 2    
    87   43   45 1    
    88   45   46 1    
    89   45   49 1    
    90   45  107 1    
    91   46   47 1    
    92   46  108 1    
    93   46  109 1    
    94   47   48 1    
    95   48  110 1    
    96   48  111 1    
    97   49   50 am   BACKBONE|DICT|INTERRES
    98   49  112 1    
    99   50   51 2    
   100   50   52 1    
   101   52   53 1    
   102   52   54 1    
   103   52  113 1    
   104   53  114 1    
   105   53  115 1    
   106   53  116 1    
   107   54   55 am   BACKBONE|DICT|INTERRES
   108   54  117 1    
   109   55   56 2    
   110   55   57 1    
   111   57   58 1    
   112   57   59 1    
   113   57  118 1    
   114   58  119 1    
   115   58  120 1    
   116   58  121 1    
   117   59   60 am   BACKBONE|DICT|INTERRES
   118   59  122 1    
   119   60   61 2    
   120   60   62 1    
   121   62   63 1    
   122   62   64 1    
   123   62  123 1    
   124   63  124 1    
   125   63  125 1    
   126   63  126 1    
   127   64   65 am   BACKBONE|DICT|INTERRES
   128   64  127 1    
   129   65   66 2    
@<TRIPOS>SUBSTRUCTURE
     1 UNK         1 GROUP             0       ****    0 ROOT    
