@<TRIPOS>MOLECULE
3R135
127   129    1
SMALL
USER_CHARGES


@<TRIPOS>ATOM
      1 CA        -80.9582   24.3416  -69.7117 C.3       0 UNK        -0.1998 
      2 C         -79.8474   25.2543  -70.2220 C.2       0 UNK         0.4909 
      3 O         -78.7827   25.3114  -69.6107 O.2       0 UNK        -0.5240 
      4 N         -80.0364   25.9778  -71.3305 N.am      1 UNK        -0.4739 
      5 CA        -81.2185   26.0273  -72.1881 C.3       1 UNK         0.0864 
      6 C6        -82.2842   27.0320  -71.6625 C.3       11 UNK        -0.0881 
      7 S7        -82.0119   28.8075  -72.0029 S.3       11 UNK        -0.2682 
      8 C8        -80.6054   29.2352  -70.9192 C.3       11 UNK         0.0289 
      9 C9        -79.2852   29.3125  -71.6811 C.ar      11 UNK        -0.0687 
     10 C10       -79.1912   30.0880  -72.8417 C.ar      11 UNK        -0.0823 
     11 C11       -77.9880   30.1884  -73.5444 C.ar      11 UNK        -0.0830 
     12 C12       -76.8595   29.5208  -73.0604 C.ar      11 UNK        -0.1021 
     13 C13       -76.9353   28.7409  -71.9038 C.ar      11 UNK        -0.0753 
     14 C14       -78.1484   28.6428  -71.2143 C.ar      11 UNK        -0.0933 
     15 C15       -75.6962   28.0178  -71.4045 C.3       11 UNK         0.0166 
     16 S16       -74.7479   29.0889  -70.2814 S.3       11 UNK        -0.2615 
     17 C17       -73.0383   28.5210  -70.5716 C.3       11 UNK        -0.0865 
     18 CA        -72.2460   29.5116  -71.4641 C.3       10 UNK         0.0862 
     19 C         -70.7334   29.1609  -71.4706 C.2       10 UNK         0.5551 
     20 N         -69.9697   29.7026  -70.5319 N.am      10 UNK        -0.7319 
     21 O         -70.2565   28.3749  -72.2870 O.2       10 UNK        -0.5018 
     22 N         -72.7983   29.5648  -72.8234 N.am      10 UNK        -0.4509 
     23 C         -72.5539   30.5216  -73.7232 C.2       10 UNK         0.4899 
     24 O         -71.9110   31.5448  -73.4817 O.2       10 UNK        -0.4839 
     25 CA        -73.1052   30.2656  -75.1403 C.3       9 UNK         0.0222 
     26 CB        -73.0122   31.5053  -76.0485 C.3       9 UNK        -0.1966 
     27 N         -72.4199   29.1431  -75.7876 N.am      9 UNK        -0.4218 
     28 C         -72.6219   27.8514  -75.4994 C.2       9 UNK         0.5020 
     29 O         -73.4245   27.4617  -74.6489 O.2       9 UNK        -0.5274 
     30 CA        -71.7460   26.8346  -76.2364 C.3       8 UNK         0.0270 
     31 CB        -70.5709   26.3930  -75.3431 C.3       8 UNK        -0.1976 
     32 N         -72.5579   25.6827  -76.6245 N.am      8 UNK        -0.4313 
     33 C         -72.2248   24.7954  -77.5715 C.2       8 UNK         0.5041 
     34 O         -71.1671   24.8326  -78.2026 O.2       8 UNK        -0.5577 
     35 CA        -73.2454   23.6934  -77.8950 C.3       7 UNK         0.0284 
     36 CB        -73.3180   22.6436  -76.7727 C.3       7 UNK        -0.1958 
     37 N         -74.5686   24.2666  -78.1398 N.am      7 UNK        -0.4454 
     38 C         -74.9783   24.7357  -79.3272 C.2       7 UNK         0.5089 
     39 O         -74.3189   24.6402  -80.3633 O.2       7 UNK        -0.5125 
     40 CA        -76.3514   25.4340  -79.3864 C.3       6 UNK         0.0408 
     41 CB        -77.4372   24.4430  -79.8339 C.3       6 UNK        -0.1791 
     42 N         -76.7597   26.0547  -78.1251 N.am      6 UNK        -0.4762 
     43 C         -76.1221   27.0670  -77.5185 C.2       6 UNK         0.5007 
     44 O         -75.1431   27.6432  -77.9937 O.2       6 UNK        -0.5032 
     45 CA        -76.6464   27.4667  -76.1234 C.3       5 UNK         0.0783 
     46 C46       -77.7713   28.5299  -76.2372 C.3       11 UNK        -0.0857 
     47 S47       -77.0683   30.2164  -76.2164 S.3       11 UNK        -0.2512 
     48 C48       -77.9336   31.0209  -74.8227 C.3       11 UNK         0.0225 
     49 N         -77.0439   26.3128  -75.3053 N.am      5 UNK        -0.4615 
     50 C         -76.2526   25.2721  -74.9992 C.2       4 UNK         0.5053 
     51 O         -75.0939   25.1482  -75.3882 O.2       4 UNK        -0.5105 
     52 CA        -76.8805   24.1338  -74.1872 C.3       4 UNK         0.0263 
     53 CB        -76.9998   24.5127  -72.7025 C.3       4 UNK        -0.1981 
     54 N         -78.1845   23.7678  -74.7402 N.am      4 UNK        -0.4224 
     55 C         -78.3422   23.0848  -75.8853 C.2       3 UNK         0.4895 
     56 O         -77.4108   22.5964  -76.5251 O.2       3 UNK        -0.5091 
     57 CA        -79.7754   22.9406  -76.4270 C.3       3 UNK         0.0250 
     58 CB        -80.4263   21.6544  -75.8938 C.3       3 UNK        -0.1996 
     59 N         -80.6300   24.0874  -76.1097 N.am      3 UNK        -0.4254 
     60 C         -80.4592   25.3253  -76.5972 C.2       2 UNK         0.5004 
     61 O         -79.5874   25.6288  -77.4112 O.2       2 UNK        -0.5226 
     62 CA        -81.3825   26.4183  -76.0292 C.3       2 UNK         0.0269 
     63 CB        -82.6942   26.4896  -76.8263 C.3       2 UNK        -0.1926 
     64 N         -81.6800   26.2409  -74.6005 N.am      2 UNK        -0.4687 
     65 C         -80.7490   26.2742  -73.6365 C.2       1 UNK         0.5165 
     66 O         -79.5496   26.4486  -73.8715 O.2       1 UNK        -0.5079 
     67 H67       -80.7024   23.9446  -68.7295 H         1 UNK         0.0900 
     68 H68       -81.9027   24.8737  -69.6134 H         1 UNK         0.0900 
     69 H69       -81.0984   23.4965  -70.3850 H         1 UNK         0.0900 
     70 H70       -79.2733   26.5332  -71.6978 H         1 UNK         0.2959 
     71 H71       -81.6682   25.0328  -72.2019 H         1 UNK         0.1079 
     72 H72       -82.4285   26.9131  -70.5883 H         1 UNK         0.0837 
     73 H73       -83.2508   26.7794  -72.1012 H         1 UNK         0.0837 
     74 H74       -80.7989   30.2107  -70.4716 H         1 UNK         0.0685 
     75 H75       -80.5445   28.5267  -70.0919 H         1 UNK         0.0685 
     76 H76       -80.0664   30.6113  -73.2014 H         1 UNK         0.1434 
     77 H77       -75.9206   29.5998  -73.5882 H         1 UNK         0.1329 
     78 H78       -78.2008   28.0529  -70.3091 H         1 UNK         0.1335 
     79 H79       -75.9711   27.0984  -70.8850 H         1 UNK         0.0680 
     80 H80       -75.0823   27.7196  -72.2561 H         1 UNK         0.0680 
     81 H81       -72.5626   28.4273  -69.5933 H         1 UNK         0.1032 
     82 H82       -73.0362   27.5174  -71.0016 H         1 UNK         0.1032 
     83 H83       -72.3494   30.5096  -71.0322 H         1 UNK         0.0461 
     84 H84       -70.3521   30.3418  -69.8522 H         1 UNK         0.3453 
     85 H85       -68.9877   29.4760  -70.5087 H         1 UNK         0.3453 
     86 H86       -73.2378   28.7159  -73.1654 H         1 UNK         0.2984 
     87 H87       -74.1625   30.0147  -75.0420 H         1 UNK         0.0554 
     88 H88       -73.5313   32.3542  -75.6015 H         1 UNK         0.0847 
     89 H89       -73.4758   31.3207  -77.0179 H         1 UNK         0.0847 
     90 H90       -71.9786   31.8081  -76.2205 H         1 UNK         0.0847 
     91 H91       -71.7101   29.3828  -76.4650 H         1 UNK         0.3141 
     92 H92       -71.3541   27.3033  -77.1417 H         1 UNK         0.0743 
     93 H93       -70.9222   25.8867  -74.4429 H         1 UNK         0.0784 
     94 H94       -69.8977   25.7156  -75.8682 H         1 UNK         0.0784 
     95 H95       -69.9795   27.2516  -75.0217 H         1 UNK         0.0784 
     96 H96       -73.4528   25.5971  -76.1389 H         1 UNK         0.3213 
     97 H97       -72.9079   23.1797  -78.7981 H         1 UNK         0.0855 
     98 H98       -73.6038   23.0781  -75.8152 H         1 UNK         0.0814 
     99 H99       -72.3494   22.1624  -76.6318 H         1 UNK         0.0814 
    100 H100      -74.0382   21.8604  -77.0105 H         1 UNK         0.0814 
    101 H101      -75.1451   24.4353  -77.3230 H         1 UNK         0.3105 
    102 H102      -76.2840   26.2261  -80.1349 H         1 UNK         0.0547 
    103 H103      -77.1821   23.9897  -80.7927 H         1 UNK         0.0837 
    104 H104      -77.5647   23.6340  -79.1139 H         1 UNK         0.0837 
    105 H105      -78.4012   24.9374  -79.9557 H         1 UNK         0.0837 
    106 H106      -77.6089   25.6981  -77.6948 H         1 UNK         0.3020 
    107 H107      -75.8014   27.9056  -75.5903 H         1 UNK         0.1245 
    108 H108      -78.4809   28.4254  -75.4168 H         1 UNK         0.0781 
    109 H109      -78.3709   28.4008  -77.1407 H         1 UNK         0.0781 
    110 H110      -78.9419   31.2714  -75.1563 H         1 UNK         0.0836 
    111 H111      -77.4396   31.9682  -74.6036 H         1 UNK         0.0836 
    112 H112      -77.9798   26.3419  -74.9087 H         1 UNK         0.3022 
    113 H113      -76.2229   23.2642  -74.2568 H         1 UNK         0.0747 
    114 H114      -77.5040   23.7354  -72.1284 H         1 UNK         0.0793 
    115 H115      -76.0114   24.6510  -72.2625 H         1 UNK         0.0793 
    116 H116      -77.5427   25.4456  -72.5580 H         1 UNK         0.0793 
    117 H117      -78.9951   24.1818  -74.3042 H         1 UNK         0.3047 
    118 H118      -79.7076   22.8652  -77.5147 H         1 UNK         0.0822 
    119 H119      -81.4112   21.4959  -76.3335 H         1 UNK         0.0807 
    120 H120      -80.5409   21.6767  -74.8093 H         1 UNK         0.0807 
    121 H121      -79.8203   20.7810  -76.1392 H         1 UNK         0.0807 
    122 H122      -81.3810   23.9322  -75.4532 H         1 UNK         0.2946 
    123 H123      -80.8604   27.3712  -76.1439 H         1 UNK         0.1144 
    124 H124      -83.3147   27.3223  -76.4944 H         1 UNK         0.0793 
    125 H125      -83.2789   25.5741  -76.7292 H         1 UNK         0.0793 
    126 H126      -82.4964   26.6392  -77.8888 H         1 UNK         0.0793 
    127 H127      -82.6491   26.1055  -74.3498 H         1 UNK         0.2896 
@<TRIPOS>BOND
     1    1    2 1    
     2    1   67 1    
     3    1   68 1    
     4    1   69 1    
     5    2    3 2    
     6    2    4 am   BACKBONE|DICT|INTERRES
     7    4    5 1    
     8    4   70 1    
     9    5    6 1    
    10    5   65 1    
    11    5   71 1    
    12    6    7 1    
    13    6   72 1    
    14    6   73 1    
    15    7    8 1    
    16    8    9 1    
    17    8   74 1    
    18    8   75 1    
    19    9   10 ar   
    20    9   14 ar   
    21   10   11 ar   
    22   10   76 1    
    23   11   12 ar   
    24   11   48 1    
    25   12   13 ar   
    26   12   77 1    
    27   13   14 ar   
    28   13   15 1    
    29   14   78 1    
    30   15   16 1    
    31   15   79 1    
    32   15   80 1    
    33   16   17 1    
    34   17   18 1    
    35   17   81 1    
    36   17   82 1    
    37   18   19 1    
    38   18   22 1    
    39   18   83 1    
    40   19   20 am   BACKBONE|DICT|INTERRES
    41   19   21 2    
    42   20   84 1    
    43   20   85 1    
    44   22   23 am   BACKBONE|DICT|INTERRES
    45   22   86 1    
    46   23   24 2    
    47   23   25 1    
    48   25   26 1    
    49   25   27 1    
    50   25   87 1    
    51   26   88 1    
    52   26   89 1    
    53   26   90 1    
    54   27   28 am   BACKBONE|DICT|INTERRES
    55   27   91 1    
    56   28   29 2    
    57   28   30 1    
    58   30   31 1    
    59   30   32 1    
    60   30   92 1    
    61   31   93 1    
    62   31   94 1    
    63   31   95 1    
    64   32   33 am   BACKBONE|DICT|INTERRES
    65   32   96 1    
    66   33   34 2    
    67   33   35 1    
    68   35   36 1    
    69   35   37 1    
    70   35   97 1    
    71   36   98 1    
    72   36   99 1    
    73   36  100 1    
    74   37   38 am   BACKBONE|DICT|INTERRES
    75   37  101 1    
    76   38   39 2    
    77   38   40 1    
    78   40   41 1    
    79   40   42 1    
    80   40  102 1    
    81   41  103 1    
    82   41  104 1    
    83   41  105 1    
    84   42   43 am   BACKBONE|DICT|INTERRES
    85   42  106 1    
    86   43   44 2    
    87   43   45 1    
    88   45   46 1    
    89   45   49 1    
    90   45  107 1    
    91   46   47 1    
    92   46  108 1    
    93   46  109 1    
    94   47   48 1    
    95   48  110 1    
    96   48  111 1    
    97   49   50 am   BACKBONE|DICT|INTERRES
    98   49  112 1    
    99   50   51 2    
   100   50   52 1    
   101   52   53 1    
   102   52   54 1    
   103   52  113 1    
   104   53  114 1    
   105   53  115 1    
   106   53  116 1    
   107   54   55 am   BACKBONE|DICT|INTERRES
   108   54  117 1    
   109   55   56 2    
   110   55   57 1    
   111   57   58 1    
   112   57   59 1    
   113   57  118 1    
   114   58  119 1    
   115   58  120 1    
   116   58  121 1    
   117   59   60 am   BACKBONE|DICT|INTERRES
   118   59  122 1    
   119   60   61 2    
   120   60   62 1    
   121   62   63 1    
   122   62   64 1    
   123   62  123 1    
   124   63  124 1    
   125   63  125 1    
   126   63  126 1    
   127   64   65 am   BACKBONE|DICT|INTERRES
   128   64  127 1    
   129   65   66 2    
@<TRIPOS>SUBSTRUCTURE
     1 UNK         1 GROUP             0       ****    0 ROOT    
