@<TRIPOS>MOLECULE
3R135
127   129    1
SMALL
USER_CHARGES


@<TRIPOS>ATOM
      1 CA        -80.6465   25.6865  -72.0695 C.3       0 UNK        -0.1998 
      2 C         -82.1648   25.8189  -72.0296 C.2       0 UNK         0.4909 
      3 O         -82.7951   25.1597  -71.2057 O.2       0 UNK        -0.5240 
      4 N         -82.8151   26.6275  -72.8815 N.am      1 UNK        -0.4739 
      5 CA        -82.3094   27.5072  -73.9553 C.3       1 UNK         0.0864 
      6 C6        -81.2211   28.5320  -73.5239 C.3       11 UNK        -0.0881 
      7 S7        -81.6641   29.4774  -72.0291 S.3       11 UNK        -0.2682 
      8 C8        -80.2882   30.6743  -71.9453 C.3       11 UNK         0.0289 
      9 C9        -78.9067   30.0313  -71.8340 C.ar      11 UNK        -0.0687 
     10 C10       -78.6760   28.9517  -70.9730 C.ar      11 UNK        -0.0823 
     11 C11       -77.4072   28.3720  -70.8725 C.ar      11 UNK        -0.0830 
     12 C12       -76.3530   28.9078  -71.6192 C.ar      11 UNK        -0.1021 
     13 C13       -76.5627   29.9968  -72.4685 C.ar      11 UNK        -0.0753 
     14 C14       -77.8418   30.5489  -72.5785 C.ar      11 UNK        -0.0933 
     15 C15       -75.4018   30.5723  -73.2624 C.3       11 UNK         0.0166 
     16 S16       -74.3743   31.6471  -72.2102 S.3       11 UNK        -0.2615 
     17 C17       -73.1116   32.3238  -73.3508 C.3       11 UNK        -0.0865 
     18 CA        -72.5884   31.3611  -74.4502 C.3       10 UNK         0.0862 
     19 C         -71.4983   32.0594  -75.3093 C.2       10 UNK         0.5551 
     20 N         -71.8897   32.7266  -76.3863 N.am      10 UNK        -0.7319 
     21 O         -70.3134   32.0424  -74.9803 O.2       10 UNK        -0.5018 
     22 N         -72.1327   30.0875  -73.8751 N.am      10 UNK        -0.4509 
     23 C         -71.8545   28.9875  -74.5835 C.2       10 UNK         0.4899 
     24 O         -71.9158   28.9409  -75.8134 O.2       10 UNK        -0.4839 
     25 CA        -71.4507   27.7269  -73.7958 C.3       9 UNK         0.0222 
     26 CB        -71.9513   27.7202  -72.3357 C.3       9 UNK        -0.1966 
     27 N         -72.0002   26.5640  -74.4874 N.am      9 UNK        -0.4218 
     28 C         -71.2933   25.6051  -75.0971 C.2       9 UNK         0.5020 
     29 O         -70.0670   25.5016  -75.0340 O.2       9 UNK        -0.5274 
     30 CA        -72.0919   24.5919  -75.9375 C.3       8 UNK         0.0270 
     31 CB        -72.6674   23.4829  -75.0449 C.3       8 UNK        -0.1976 
     32 N         -73.1760   25.2172  -76.7001 N.am      8 UNK        -0.4313 
     33 C         -72.9981   26.0791  -77.7132 C.2       8 UNK         0.5041 
     34 O         -71.8947   26.3665  -78.1791 O.2       8 UNK        -0.5577 
     35 CA        -74.2520   26.7277  -78.3192 C.3       7 UNK         0.0284 
     36 CB        -74.7282   25.9338  -79.5470 C.3       7 UNK        -0.1958 
     37 N         -75.3387   26.8179  -77.3390 N.am      7 UNK        -0.4454 
     38 C         -75.7182   27.9511  -76.7337 C.2       7 UNK         0.5089 
     39 O         -75.2391   29.0578  -76.9811 O.2       7 UNK        -0.5125 
     40 CA        -76.8324   27.8533  -75.6772 C.3       6 UNK         0.0408 
     41 CB        -78.2018   28.1359  -76.3107 C.3       6 UNK        -0.1791 
     42 N         -76.8868   26.5920  -74.9306 N.am      6 UNK        -0.4762 
     43 C         -75.9287   26.1670  -74.0909 C.2       6 UNK         0.5007 
     44 O         -74.8232   26.7000  -74.0011 O.2       6 UNK        -0.5032 
     45 CA        -76.2356   24.9272  -73.2309 C.3       5 UNK         0.0783 
     46 C46       -77.1168   25.2641  -72.0031 C.3       11 UNK        -0.0857 
     47 S47       -76.1241   25.8761  -70.6014 S.3       11 UNK        -0.2512 
     48 C48       -77.1860   27.1972  -69.9229 C.3       11 UNK         0.0225 
     49 N         -76.8271   23.8814  -74.0642 N.am      5 UNK        -0.4615 
     50 C         -76.3013   22.6603  -74.2279 C.2       4 UNK         0.5053 
     51 O         -75.3887   22.2101  -73.5355 O.2       4 UNK        -0.5105 
     52 CA        -76.8546   21.7884  -75.3735 C.3       4 UNK         0.0263 
     53 CB        -77.8044   20.7162  -74.8149 C.3       4 UNK        -0.1981 
     54 N         -77.5464   22.5261  -76.4356 N.am      4 UNK        -0.4224 
     55 C         -77.0557   23.5512  -77.1481 C.2       3 UNK         0.4895 
     56 O         -75.9124   23.9943  -77.0288 O.2       3 UNK        -0.5091 
     57 CA        -78.0381   24.2678  -78.0916 C.3       3 UNK         0.0250 
     58 CB        -77.9447   23.6760  -79.5067 C.3       3 UNK        -0.1996 
     59 N         -79.4408   24.2504  -77.6519 N.am      3 UNK        -0.4254 
     60 C         -79.9071   24.6437  -76.4568 C.2       2 UNK         0.5004 
     61 O         -79.1886   25.0211  -75.5238 O.2       2 UNK        -0.5226 
     62 CA        -81.4298   24.5277  -76.2628 C.3       2 UNK         0.0269 
     63 CB        -81.8064   23.0799  -75.9066 C.3       2 UNK        -0.1926 
     64 N         -81.9277   25.4109  -75.2074 N.am      2 UNK        -0.4687 
     65 C         -81.8918   26.7505  -75.2366 C.2       1 UNK         0.5165 
     66 O         -81.5580   27.3933  -76.2328 O.2       1 UNK        -0.5079 
     67 H67       -80.2443   25.7300  -73.0790 H         1 UNK         0.0900 
     68 H68       -80.1913   26.4761  -71.4747 H         1 UNK         0.0900 
     69 H69       -80.3411   24.7313  -71.6431 H         1 UNK         0.0900 
     70 H70       -83.8216   26.6550  -72.7916 H         1 UNK         0.2959 
     71 H71       -83.1793   28.0925  -74.2585 H         1 UNK         0.1079 
     72 H72       -81.0519   29.2522  -74.3270 H         1 UNK         0.0837 
     73 H73       -80.2587   28.0467  -73.3625 H         1 UNK         0.0837 
     74 H74       -80.3413   31.3186  -72.8243 H         1 UNK         0.0685 
     75 H75       -80.4405   31.3205  -71.0800 H         1 UNK         0.0685 
     76 H76       -79.4911   28.5633  -70.3781 H         1 UNK         0.1434 
     77 H77       -75.3624   28.4824  -71.5375 H         1 UNK         0.1329 
     78 H78       -78.0038   31.3927  -73.2351 H         1 UNK         0.1335 
     79 H79       -75.7660   31.1397  -74.1203 H         1 UNK         0.0680 
     80 H80       -74.8073   29.7492  -73.6598 H         1 UNK         0.0680 
     81 H81       -73.5370   33.2162  -73.8141 H         1 UNK         0.1032 
     82 H82       -72.2803   32.6794  -72.7385 H         1 UNK         0.1032 
     83 H83       -73.4202   31.1268  -75.1177 H         1 UNK         0.0461 
     84 H84       -72.8593   32.7508  -76.6615 H         1 UNK         0.3453 
     85 H85       -71.1989   33.2011  -76.9466 H         1 UNK         0.3453 
     86 H86       -72.0462   30.0611  -72.8705 H         1 UNK         0.2984 
     87 H87       -70.3599   27.6894  -73.7875 H         1 UNK         0.0554 
     88 H88       -71.7287   26.7699  -71.8503 H         1 UNK         0.0847 
     89 H89       -73.0298   27.8736  -72.2753 H         1 UNK         0.0847 
     90 H90       -71.4682   28.4968  -71.7421 H         1 UNK         0.0847 
     91 H91       -73.0122   26.5709  -74.5916 H         1 UNK         0.3141 
     92 H92       -71.4043   24.1331  -76.6511 H         1 UNK         0.0743 
     93 H93       -73.3425   23.8861  -74.2901 H         1 UNK         0.0784 
     94 H94       -73.2182   22.7447  -75.6285 H         1 UNK         0.0784 
     95 H95       -71.8717   22.9537  -74.5190 H         1 UNK         0.0784 
     96 H96       -74.1221   24.9523  -76.4560 H         1 UNK         0.3213 
     97 H97       -73.9677   27.7263  -78.6586 H         1 UNK         0.0855 
     98 H98       -74.9141   24.8874  -79.3073 H         1 UNK         0.0814 
     99 H99       -73.9732   25.9528  -80.3340 H         1 UNK         0.0814 
    100 H100      -75.6431   26.3540  -79.9648 H         1 UNK         0.0814 
    101 H101      -75.7713   25.9429  -77.0638 H         1 UNK         0.3105 
    102 H102      -76.6449   28.6425  -74.9495 H         1 UNK         0.0547 
    103 H103      -78.2015   29.0925  -76.8346 H         1 UNK         0.0837 
    104 H104      -78.9822   28.1860  -75.5528 H         1 UNK         0.0837 
    105 H105      -78.4844   27.3697  -77.0321 H         1 UNK         0.0837 
    106 H106      -77.7614   26.0763  -74.9969 H         1 UNK         0.3020 
    107 H107      -75.2681   24.5772  -72.8628 H         1 UNK         0.1245 
    108 H108      -77.6368   24.3703  -71.6546 H         1 UNK         0.0781 
    109 H109      -77.8938   25.9834  -72.2621 H         1 UNK         0.0781 
    110 H110      -76.7276   27.5756  -69.0085 H         1 UNK         0.0836 
    111 H111      -78.1389   26.7545  -69.6284 H         1 UNK         0.0836 
    112 H112      -77.5987   24.1603  -74.6611 H         1 UNK         0.3022 
    113 H113      -76.0000   21.2882  -75.8334 H         1 UNK         0.0747 
    114 H114      -78.1239   20.0225  -75.5929 H         1 UNK         0.0793 
    115 H115      -77.3145   20.1250  -74.0396 H         1 UNK         0.0793 
    116 H116      -78.6965   21.1603  -74.3711 H         1 UNK         0.0793 
    117 H117      -78.5041   22.2596  -76.6087 H         1 UNK         0.3047 
    118 H118      -77.7312   25.3135  -78.1419 H         1 UNK         0.0822 
    119 H119      -78.5289   24.2580  -80.2198 H         1 UNK         0.0807 
    120 H120      -78.3039   22.6466  -79.5386 H         1 UNK         0.0807 
    121 H121      -76.9153   23.6701  -79.8664 H         1 UNK         0.0807 
    122 H122      -80.1097   23.9369  -78.3412 H         1 UNK         0.2946 
    123 H123      -81.9211   24.8092  -77.1971 H         1 UNK         0.1144 
    124 H124      -82.8844   22.9679  -75.7886 H         1 UNK         0.0793 
    125 H125      -81.3324   22.7567  -74.9785 H         1 UNK         0.0793 
    126 H126      -81.4974   22.3857  -76.6892 H         1 UNK         0.0793 
    127 H127      -82.2377   24.9672  -74.3559 H         1 UNK         0.2896 
@<TRIPOS>BOND
     1    1    2 1    
     2    1   67 1    
     3    1   68 1    
     4    1   69 1    
     5    2    3 2    
     6    2    4 am   BACKBONE|DICT|INTERRES
     7    4    5 1    
     8    4   70 1    
     9    5    6 1    
    10    5   65 1    
    11    5   71 1    
    12    6    7 1    
    13    6   72 1    
    14    6   73 1    
    15    7    8 1    
    16    8    9 1    
    17    8   74 1    
    18    8   75 1    
    19    9   10 ar   
    20    9   14 ar   
    21   10   11 ar   
    22   10   76 1    
    23   11   12 ar   
    24   11   48 1    
    25   12   13 ar   
    26   12   77 1    
    27   13   14 ar   
    28   13   15 1    
    29   14   78 1    
    30   15   16 1    
    31   15   79 1    
    32   15   80 1    
    33   16   17 1    
    34   17   18 1    
    35   17   81 1    
    36   17   82 1    
    37   18   19 1    
    38   18   22 1    
    39   18   83 1    
    40   19   20 am   BACKBONE|DICT|INTERRES
    41   19   21 2    
    42   20   84 1    
    43   20   85 1    
    44   22   23 am   BACKBONE|DICT|INTERRES
    45   22   86 1    
    46   23   24 2    
    47   23   25 1    
    48   25   26 1    
    49   25   27 1    
    50   25   87 1    
    51   26   88 1    
    52   26   89 1    
    53   26   90 1    
    54   27   28 am   BACKBONE|DICT|INTERRES
    55   27   91 1    
    56   28   29 2    
    57   28   30 1    
    58   30   31 1    
    59   30   32 1    
    60   30   92 1    
    61   31   93 1    
    62   31   94 1    
    63   31   95 1    
    64   32   33 am   BACKBONE|DICT|INTERRES
    65   32   96 1    
    66   33   34 2    
    67   33   35 1    
    68   35   36 1    
    69   35   37 1    
    70   35   97 1    
    71   36   98 1    
    72   36   99 1    
    73   36  100 1    
    74   37   38 am   BACKBONE|DICT|INTERRES
    75   37  101 1    
    76   38   39 2    
    77   38   40 1    
    78   40   41 1    
    79   40   42 1    
    80   40  102 1    
    81   41  103 1    
    82   41  104 1    
    83   41  105 1    
    84   42   43 am   BACKBONE|DICT|INTERRES
    85   42  106 1    
    86   43   44 2    
    87   43   45 1    
    88   45   46 1    
    89   45   49 1    
    90   45  107 1    
    91   46   47 1    
    92   46  108 1    
    93   46  109 1    
    94   47   48 1    
    95   48  110 1    
    96   48  111 1    
    97   49   50 am   BACKBONE|DICT|INTERRES
    98   49  112 1    
    99   50   51 2    
   100   50   52 1    
   101   52   53 1    
   102   52   54 1    
   103   52  113 1    
   104   53  114 1    
   105   53  115 1    
   106   53  116 1    
   107   54   55 am   BACKBONE|DICT|INTERRES
   108   54  117 1    
   109   55   56 2    
   110   55   57 1    
   111   57   58 1    
   112   57   59 1    
   113   57  118 1    
   114   58  119 1    
   115   58  120 1    
   116   58  121 1    
   117   59   60 am   BACKBONE|DICT|INTERRES
   118   59  122 1    
   119   60   61 2    
   120   60   62 1    
   121   62   63 1    
   122   62   64 1    
   123   62  123 1    
   124   63  124 1    
   125   63  125 1    
   126   63  126 1    
   127   64   65 am   BACKBONE|DICT|INTERRES
   128   64  127 1    
   129   65   66 2    
@<TRIPOS>SUBSTRUCTURE
     1 UNK         1 GROUP             0       ****    0 ROOT    
