@<TRIPOS>MOLECULE
3R135
127   129    1
SMALL
USER_CHARGES


@<TRIPOS>ATOM
      1 CA        -81.1916   20.8951  -73.3013 C.3       0 UNK        -0.1998 
      2 C         -81.6682   22.3294  -73.1326 C.2       0 UNK         0.4909 
      3 O         -82.5495   22.7709  -73.8703 O.2       0 UNK        -0.5240 
      4 N         -81.0791   23.0576  -72.1735 N.am      1 UNK        -0.4739 
      5 CA        -81.3428   24.4645  -71.8379 C.3       1 UNK         0.0864 
      6 C6        -80.4980   24.8767  -70.5913 C.3       11 UNK        -0.0881 
      7 S7        -80.1233   26.6532  -70.3591 S.3       11 UNK        -0.2682 
      8 C8        -78.3717   26.6710  -70.8731 C.3       11 UNK         0.0289 
      9 C9        -77.9195   28.0286  -71.3880 C.ar      11 UNK        -0.0687 
     10 C10       -78.6102   28.6481  -72.4331 C.ar      11 UNK        -0.0823 
     11 C11       -78.1640   29.8626  -72.9600 C.ar      11 UNK        -0.0830 
     12 C12       -77.0097   30.4552  -72.4403 C.ar      11 UNK        -0.1021 
     13 C13       -76.3070   29.8432  -71.3981 C.ar      11 UNK        -0.0753 
     14 C14       -76.7723   28.6354  -70.8686 C.ar      11 UNK        -0.0933 
     15 C15       -75.0316   30.4714  -70.8601 C.3       11 UNK         0.0166 
     16 S16       -73.5747   29.5608  -71.4526 S.3       11 UNK        -0.2615 
     17 C17       -72.2084   30.6011  -70.8384 C.3       11 UNK        -0.0865 
     18 CA        -71.3616   31.2064  -71.9892 C.3       10 UNK         0.0862 
     19 C         -70.2972   32.1911  -71.4198 C.2       10 UNK         0.5551 
     20 N         -69.0042   31.9071  -71.5194 N.am      10 UNK        -0.7319 
     21 O         -70.6561   33.2337  -70.8778 O.2       10 UNK        -0.5018 
     22 N         -70.8329   30.1574  -72.8808 N.am      10 UNK        -0.4509 
     23 C         -70.3199   30.3641  -74.1009 C.2       10 UNK         0.4899 
     24 O         -70.2324   31.4712  -74.6325 O.2       10 UNK        -0.4839 
     25 CA        -69.8069   29.1265  -74.8574 C.3       9 UNK         0.0222 
     26 CB        -68.3201   28.8880  -74.5457 C.3       9 UNK        -0.1966 
     27 N         -70.5683   27.9077  -74.5628 N.am      9 UNK        -0.4218 
     28 C         -71.7832   27.6386  -75.0600 C.2       9 UNK         0.5020 
     29 O         -72.4041   28.3977  -75.8069 O.2       9 UNK        -0.5274 
     30 CA        -72.4126   26.2990  -74.6379 C.3       8 UNK         0.0270 
     31 CB        -73.4526   26.5076  -73.5254 C.3       8 UNK        -0.1976 
     32 N         -73.0524   25.6130  -75.7608 N.am      8 UNK        -0.4313 
     33 C         -72.4064   25.0802  -76.8065 C.2       8 UNK         0.5041 
     34 O         -71.1818   25.1072  -76.9411 O.2       8 UNK        -0.5577 
     35 CA        -73.2590   24.3732  -77.8705 C.3       7 UNK         0.0284 
     36 CB        -73.5970   22.9416  -77.4204 C.3       7 UNK        -0.1958 
     37 N         -74.5025   25.0954  -78.1450 N.am      7 UNK        -0.4454 
     38 C         -74.7173   25.8673  -79.2189 C.2       7 UNK         0.5089 
     39 O         -73.8766   26.0675  -80.0966 O.2       7 UNK        -0.5125 
     40 CA        -76.1110   26.5092  -79.3683 C.3       6 UNK         0.0408 
     41 CB        -76.9695   25.6939  -80.3486 C.3       6 UNK        -0.1791 
     42 N         -76.8382   26.6445  -78.1051 N.am      6 UNK        -0.4762 
     43 C         -76.5408   27.5307  -77.1426 C.2       6 UNK         0.5007 
     44 O         -75.6393   28.3619  -77.2432 O.2       6 UNK        -0.5032 
     45 CA        -77.3786   27.4571  -75.8435 C.3       5 UNK         0.0783 
     46 C46       -78.6072   28.3996  -75.9333 C.3       11 UNK        -0.0857 
     47 S47       -78.1870   30.1620  -75.7127 S.3       11 UNK        -0.2512 
     48 C48       -78.9257   30.5337  -74.0918 C.3       11 UNK         0.0225 
     49 N         -77.7999   26.0904  -75.4986 N.am      5 UNK        -0.4615 
     50 C         -77.0154   25.0076  -75.3944 C.2       4 UNK         0.5053 
     51 O         -75.7932   25.0363  -75.5292 O.2       4 UNK        -0.5105 
     52 CA        -77.7047   23.6514  -75.1698 C.3       4 UNK         0.0263 
     53 CB        -77.6052   23.2184  -73.6984 C.3       4 UNK        -0.1981 
     54 N         -79.1074   23.6571  -75.5961 N.am      4 UNK        -0.4224 
     55 C         -79.5140   23.5868  -76.8732 C.2       3 UNK         0.4895 
     56 O         -78.7438   23.4647  -77.8258 O.2       3 UNK        -0.5091 
     57 CA        -81.0265   23.6931  -77.1411 C.3       3 UNK         0.0250 
     58 CB        -81.6672   22.2976  -77.2009 C.3       3 UNK        -0.1996 
     59 N         -81.7190   24.5138  -76.1427 N.am      3 UNK        -0.4254 
     60 C         -81.6847   25.8554  -76.1321 C.2       2 UNK         0.5004 
     61 O         -81.1454   26.5263  -77.0111 O.2       2 UNK        -0.5226 
     62 CA        -82.3171   26.5798  -74.9269 C.3       2 UNK         0.0269 
     63 CB        -83.7697   26.9723  -75.2390 C.3       2 UNK        -0.1926 
     64 N         -82.2797   25.8156  -73.6746 N.am      2 UNK        -0.4687 
     65 C         -81.1637   25.3611  -73.0868 C.2       1 UNK         0.5165 
     66 O         -80.0370   25.5602  -73.5421 O.2       1 UNK        -0.5079 
     67 H67       -80.5836   20.8036  -74.2007 H         1 UNK         0.0900 
     68 H68       -80.5948   20.5629  -72.4521 H         1 UNK         0.0900 
     69 H69       -82.0450   20.2240  -73.3956 H         1 UNK         0.0900 
     70 H70       -80.3597   22.6176  -71.6181 H         1 UNK         0.2959 
     71 H71       -82.3931   24.5303  -71.5463 H         1 UNK         0.1079 
     72 H72       -79.5473   24.3407  -70.5943 H         1 UNK         0.0837 
     73 H73       -81.0060   24.5295  -69.6902 H         1 UNK         0.0837 
     74 H74       -77.7575   26.3449  -70.0323 H         1 UNK         0.0685 
     75 H75       -78.2086   25.9478  -71.6721 H         1 UNK         0.0685 
     76 H76       -79.4926   28.1730  -72.8391 H         1 UNK         0.1434 
     77 H77       -76.6523   31.3869  -72.8577 H         1 UNK         0.1329 
     78 H78       -76.2191   28.1551  -70.0730 H         1 UNK         0.1335 
     79 H79       -74.9578   31.5154  -71.1691 H         1 UNK         0.0680 
     80 H80       -75.0477   30.4660  -69.7691 H         1 UNK         0.0680 
     81 H81       -72.6166   31.3918  -70.2056 H         1 UNK         0.1032 
     82 H82       -71.5814   29.9911  -70.1855 H         1 UNK         0.1032 
     83 H83       -72.0324   31.8194  -72.5946 H         1 UNK         0.0461 
     84 H84       -68.7024   31.0559  -71.9644 H         1 UNK         0.3453 
     85 H85       -68.3254   32.5537  -71.1493 H         1 UNK         0.3453 
     86 H86       -70.8812   29.2136  -72.5289 H         1 UNK         0.2984 
     87 H87       -69.8948   29.3347  -75.9261 H         1 UNK         0.0554 
     88 H88       -67.7266   29.7742  -74.7755 H         1 UNK         0.0847 
     89 H89       -67.9165   28.0690  -75.1413 H         1 UNK         0.0847 
     90 H90       -68.1568   28.6508  -73.4937 H         1 UNK         0.0847 
     91 H91       -70.1252   27.2263  -73.9629 H         1 UNK         0.3141 
     92 H92       -71.6288   25.6416  -74.2556 H         1 UNK         0.0743 
     93 H93       -74.2382   27.2007  -73.8310 H         1 UNK         0.0784 
     94 H94       -73.9283   25.5687  -73.2412 H         1 UNK         0.0784 
     95 H95       -72.9843   26.9148  -72.6294 H         1 UNK         0.0784 
     96 H96       -74.0651   25.5186  -75.7136 H         1 UNK         0.3213 
     97 H97       -72.6580   24.3019  -78.7799 H         1 UNK         0.0855 
     98 H98       -74.1985   22.9317  -76.5105 H         1 UNK         0.0814 
     99 H99       -72.6888   22.3725  -77.2174 H         1 UNK         0.0814 
    100 H100      -74.1494   22.4050  -78.1919 H         1 UNK         0.0814 
    101 H101      -75.2251   25.0369  -77.4361 H         1 UNK         0.3105 
    102 H102      -75.9696   27.5068  -79.7896 H         1 UNK         0.0547 
    103 H103      -76.4722   25.5941  -81.3144 H         1 UNK         0.0837 
    104 H104      -77.1620   24.6869  -79.9755 H         1 UNK         0.0837 
    105 H105      -77.9312   26.1742  -80.5298 H         1 UNK         0.0837 
    106 H106      -77.5918   25.9906  -77.9408 H         1 UNK         0.3020 
    107 H107      -76.7366   27.7929  -75.0256 H         1 UNK         0.1245 
    108 H108      -79.3477   28.1252  -75.1825 H         1 UNK         0.0781 
    109 H109      -79.1195   28.2852  -76.8905 H         1 UNK         0.0781 
    110 H110      -79.9750   30.2341  -74.0863 H         1 UNK         0.0836 
    111 H111      -78.9206   31.6146  -73.9433 H         1 UNK         0.0836 
    112 H112      -78.7813   25.9680  -75.2842 H         1 UNK         0.3022 
    113 H113      -77.1672   22.9138  -75.7700 H         1 UNK         0.0747 
    114 H114      -78.0464   22.2337  -73.5444 H         1 UNK         0.0793 
    115 H115      -76.5627   23.1586  -73.3827 H         1 UNK         0.0793 
    116 H116      -78.1042   23.9184  -73.0298 H         1 UNK         0.0793 
    117 H117      -79.7910   23.8552  -74.8777 H         1 UNK         0.3047 
    118 H118      -81.1527   24.1589  -78.1212 H         1 UNK         0.0822 
    119 H119      -82.7285   22.3592  -77.4421 H         1 UNK         0.0807 
    120 H120      -81.5699   21.7633  -76.2565 H         1 UNK         0.0807 
    121 H121      -81.1953   21.6856  -77.9708 H         1 UNK         0.0807 
    122 H122      -82.1766   24.0248  -75.3776 H         1 UNK         0.2946 
    123 H123      -81.7429   27.4949  -74.7675 H         1 UNK         0.1144 
    124 H124      -84.1992   27.5758  -74.4391 H         1 UNK         0.0793 
    125 H125      -84.4036   26.0955  -75.3778 H         1 UNK         0.0793 
    126 H126      -83.8263   27.5639  -76.1541 H         1 UNK         0.0793 
    127 H127      -83.1733   25.5657  -73.2752 H         1 UNK         0.2896 
@<TRIPOS>BOND
     1    1    2 1    
     2    1   67 1    
     3    1   68 1    
     4    1   69 1    
     5    2    3 2    
     6    2    4 am   BACKBONE|DICT|INTERRES
     7    4    5 1    
     8    4   70 1    
     9    5    6 1    
    10    5   65 1    
    11    5   71 1    
    12    6    7 1    
    13    6   72 1    
    14    6   73 1    
    15    7    8 1    
    16    8    9 1    
    17    8   74 1    
    18    8   75 1    
    19    9   10 ar   
    20    9   14 ar   
    21   10   11 ar   
    22   10   76 1    
    23   11   12 ar   
    24   11   48 1    
    25   12   13 ar   
    26   12   77 1    
    27   13   14 ar   
    28   13   15 1    
    29   14   78 1    
    30   15   16 1    
    31   15   79 1    
    32   15   80 1    
    33   16   17 1    
    34   17   18 1    
    35   17   81 1    
    36   17   82 1    
    37   18   19 1    
    38   18   22 1    
    39   18   83 1    
    40   19   20 am   BACKBONE|DICT|INTERRES
    41   19   21 2    
    42   20   84 1    
    43   20   85 1    
    44   22   23 am   BACKBONE|DICT|INTERRES
    45   22   86 1    
    46   23   24 2    
    47   23   25 1    
    48   25   26 1    
    49   25   27 1    
    50   25   87 1    
    51   26   88 1    
    52   26   89 1    
    53   26   90 1    
    54   27   28 am   BACKBONE|DICT|INTERRES
    55   27   91 1    
    56   28   29 2    
    57   28   30 1    
    58   30   31 1    
    59   30   32 1    
    60   30   92 1    
    61   31   93 1    
    62   31   94 1    
    63   31   95 1    
    64   32   33 am   BACKBONE|DICT|INTERRES
    65   32   96 1    
    66   33   34 2    
    67   33   35 1    
    68   35   36 1    
    69   35   37 1    
    70   35   97 1    
    71   36   98 1    
    72   36   99 1    
    73   36  100 1    
    74   37   38 am   BACKBONE|DICT|INTERRES
    75   37  101 1    
    76   38   39 2    
    77   38   40 1    
    78   40   41 1    
    79   40   42 1    
    80   40  102 1    
    81   41  103 1    
    82   41  104 1    
    83   41  105 1    
    84   42   43 am   BACKBONE|DICT|INTERRES
    85   42  106 1    
    86   43   44 2    
    87   43   45 1    
    88   45   46 1    
    89   45   49 1    
    90   45  107 1    
    91   46   47 1    
    92   46  108 1    
    93   46  109 1    
    94   47   48 1    
    95   48  110 1    
    96   48  111 1    
    97   49   50 am   BACKBONE|DICT|INTERRES
    98   49  112 1    
    99   50   51 2    
   100   50   52 1    
   101   52   53 1    
   102   52   54 1    
   103   52  113 1    
   104   53  114 1    
   105   53  115 1    
   106   53  116 1    
   107   54   55 am   BACKBONE|DICT|INTERRES
   108   54  117 1    
   109   55   56 2    
   110   55   57 1    
   111   57   58 1    
   112   57   59 1    
   113   57  118 1    
   114   58  119 1    
   115   58  120 1    
   116   58  121 1    
   117   59   60 am   BACKBONE|DICT|INTERRES
   118   59  122 1    
   119   60   61 2    
   120   60   62 1    
   121   62   63 1    
   122   62   64 1    
   123   62  123 1    
   124   63  124 1    
   125   63  125 1    
   126   63  126 1    
   127   64   65 am   BACKBONE|DICT|INTERRES
   128   64  127 1    
   129   65   66 2    
@<TRIPOS>SUBSTRUCTURE
     1 UNK         1 GROUP             0       ****    0 ROOT    
