@<TRIPOS>MOLECULE
3R135
127   129    1
SMALL
USER_CHARGES


@<TRIPOS>ATOM
      1 CA        -85.0548   26.9781  -72.1112 C.3       0 UNK        -0.1998 
      2 C         -83.6773   27.1806  -72.7235 C.2       0 UNK         0.4909 
      3 O         -83.4948   28.0853  -73.5398 O.2       0 UNK        -0.5240 
      4 N         -82.7027   26.3471  -72.3382 N.am      1 UNK        -0.4739 
      5 CA        -81.3249   26.3759  -72.8378 C.3       1 UNK         0.0864 
      6 C6        -80.3258   25.7551  -71.8234 C.3       11 UNK        -0.0881 
      7 S7        -80.3302   26.6009  -70.2026 S.3       11 UNK        -0.2682 
      8 C8        -78.5424   26.7861  -69.8483 C.3       11 UNK         0.0289 
      9 C9        -77.8215   27.9359  -70.5599 C.ar      11 UNK        -0.0687 
     10 C10       -78.4047   28.6691  -71.6005 C.ar      11 UNK        -0.0823 
     11 C11       -77.7018   29.6875  -72.2462 C.ar      11 UNK        -0.0830 
     12 C12       -76.4088   30.0033  -71.8266 C.ar      11 UNK        -0.1021 
     13 C13       -75.8164   29.3005  -70.7749 C.ar      11 UNK        -0.0753 
     14 C14       -76.5218   28.2635  -70.1545 C.ar      11 UNK        -0.0933 
     15 C15       -74.4167   29.6730  -70.3147 C.3       11 UNK         0.0166 
     16 S16       -73.1644   28.7136  -71.2140 S.3       11 UNK        -0.2615 
     17 C17       -71.7585   29.8786  -71.2262 C.3       11 UNK        -0.0865 
     18 CA        -71.6985   30.7186  -72.5307 C.3       10 UNK         0.0862 
     19 C         -70.5675   31.7853  -72.4609 C.2       10 UNK         0.5551 
     20 N         -69.5764   31.7661  -73.3440 N.am      10 UNK        -0.7319 
     21 O         -70.5955   32.6517  -71.5903 O.2       10 UNK        -0.5018 
     22 N         -71.6549   29.8561  -73.7219 N.am      10 UNK        -0.4509 
     23 C         -72.0582   30.1910  -74.9511 C.2       10 UNK         0.4899 
     24 O         -72.4858   31.3071  -75.2468 O.2       10 UNK        -0.4839 
     25 CA        -71.9985   29.1022  -76.0412 C.3       9 UNK         0.0222 
     26 CB        -70.6770   29.1743  -76.8307 C.3       9 UNK        -0.1966 
     27 N         -72.2770   27.7353  -75.5701 N.am      9 UNK        -0.4218 
     28 C         -71.5453   26.9544  -74.7602 C.2       9 UNK         0.5020 
     29 O         -70.4725   27.2998  -74.2627 O.2       9 UNK        -0.5274 
     30 CA        -72.1109   25.5709  -74.4024 C.3       8 UNK         0.0270 
     31 CB        -72.8885   25.6368  -73.0796 C.3       8 UNK        -0.1976 
     32 N         -72.9622   24.9926  -75.4456 N.am      8 UNK        -0.4313 
     33 C         -72.4847   24.4433  -76.5720 C.2       8 UNK         0.5041 
     34 O         -71.2878   24.4090  -76.8621 O.2       8 UNK        -0.5577 
     35 CA        -73.5023   23.7997  -77.5279 C.3       7 UNK         0.0284 
     36 CB        -73.9782   22.4447  -76.9792 C.3       7 UNK        -0.1958 
     37 N         -74.6551   24.6583  -77.8010 N.am      7 UNK        -0.4454 
     38 C         -74.6038   25.7894  -78.5187 C.2       7 UNK         0.5089 
     39 O         -73.5836   26.2132  -79.0625 O.2       7 UNK        -0.5125 
     40 CA        -75.9084   26.5988  -78.6373 C.3       6 UNK         0.0408 
     41 CB        -76.8065   26.0287  -79.7460 C.3       6 UNK        -0.1791 
     42 N         -76.6633   26.6740  -77.3841 N.am      6 UNK        -0.4762 
     43 C         -76.1986   27.2064  -76.2430 C.2       6 UNK         0.5007 
     44 O         -75.0744   27.6913  -76.1180 O.2       6 UNK        -0.5032 
     45 CA        -77.1308   27.1214  -75.0188 C.3       5 UNK         0.0783 
     46 C46       -78.2831   28.1577  -75.0967 C.3       11 UNK        -0.0857 
     47 S47       -77.7053   29.8897  -75.0077 S.3       11 UNK        -0.2512 
     48 C48       -78.3429   30.4466  -73.3969 C.3       11 UNK         0.0225 
     49 N         -77.6258   25.7483  -74.8577 N.am      5 UNK        -0.4615 
     50 C         -76.8448   24.6894  -74.5902 C.2       4 UNK         0.5053 
     51 O         -75.6399   24.7699  -74.3607 O.2       4 UNK        -0.5105 
     52 CA        -77.4914   23.2972  -74.6546 C.3       4 UNK         0.0263 
     53 CB        -78.0463   22.8736  -73.2868 C.3       4 UNK        -0.1981 
     54 N         -78.5356   23.2192  -75.6786 N.am      4 UNK        -0.4224 
     55 C         -78.2733   23.1910  -76.9945 C.2       3 UNK         0.4895 
     56 O         -77.1343   23.1888  -77.4594 O.2       3 UNK        -0.5091 
     57 CA        -79.4683   23.2089  -77.9627 C.3       3 UNK         0.0250 
     58 CB        -79.9321   21.7766  -78.2703 C.3       3 UNK        -0.1996 
     59 N         -80.6046   23.9985  -77.4837 N.am      3 UNK        -0.4254 
     60 C         -80.5699   25.3102  -77.2110 C.2       2 UNK         0.5004 
     61 O         -79.5624   26.0059  -77.3481 O.2       2 UNK        -0.5226 
     62 CA        -81.8567   25.9513  -76.6531 C.3       2 UNK         0.0269 
     63 CB        -83.1104   25.0557  -76.7789 C.3       2 UNK        -0.1926 
     64 N         -81.7103   26.3989  -75.2611 N.am      2 UNK        -0.4687 
     65 C         -81.2622   25.6856  -74.2167 C.2       1 UNK         0.5165 
     66 O         -80.8447   24.5295  -74.3056 O.2       1 UNK        -0.5079 
     67 H67       -85.3679   27.8805  -71.5867 H         1 UNK         0.0900 
     68 H68       -85.0678   26.1514  -71.4011 H         1 UNK         0.0900 
     69 H69       -85.7846   26.7667  -72.8922 H         1 UNK         0.0900 
     70 H70       -82.9070   25.6173  -71.6702 H         1 UNK         0.2959 
     71 H71       -81.0409   27.4176  -72.9917 H         1 UNK         0.1079 
     72 H72       -80.5564   24.7024  -71.6493 H         1 UNK         0.0837 
     73 H73       -79.3141   25.7838  -72.2326 H         1 UNK         0.0837 
     74 H74       -78.0346   25.8488  -70.0804 H         1 UNK         0.0685 
     75 H75       -78.4385   26.9303  -68.7719 H         1 UNK         0.0685 
     76 H76       -79.4095   28.4563  -71.9226 H         1 UNK         0.1434 
     77 H77       -75.8615   30.7936  -72.3227 H         1 UNK         0.1329 
     78 H78       -76.0557   27.7113  -69.3496 H         1 UNK         0.1335 
     79 H79       -74.3056   29.5001  -69.2432 H         1 UNK         0.0680 
     80 H80       -74.2536   30.7402  -70.4741 H         1 UNK         0.0680 
     81 H81       -71.8209   30.5237  -70.3474 H         1 UNK         0.1032 
     82 H82       -70.8394   29.3018  -71.1081 H         1 UNK         0.1032 
     83 H83       -72.6284   31.2882  -72.5848 H         1 UNK         0.0461 
     84 H84       -68.8512   32.4641  -73.2921 H         1 UNK         0.3453 
     85 H85       -69.5502   31.0588  -74.0606 H         1 UNK         0.3453 
     86 H86       -71.2650   28.9276  -73.5953 H         1 UNK         0.2984 
     87 H87       -72.8049   29.3275  -76.7408 H         1 UNK         0.0554 
     88 H88       -70.5424   30.1628  -77.2719 H         1 UNK         0.0847 
     89 H89       -70.6645   28.4511  -77.6463 H         1 UNK         0.0847 
     90 H90       -69.8096   28.9825  -76.1989 H         1 UNK         0.0847 
     91 H91       -73.1986   27.3962  -75.8374 H         1 UNK         0.3141 
     92 H92       -71.2603   24.9026  -74.2513 H         1 UNK         0.0743 
     93 H93       -72.2500   25.9934  -72.2705 H         1 UNK         0.0784 
     94 H94       -73.7412   26.3142  -73.1468 H         1 UNK         0.0784 
     95 H95       -73.2623   24.6554  -72.7873 H         1 UNK         0.0784 
     96 H96       -73.9606   24.9566  -75.2496 H         1 UNK         0.3213 
     97 H97       -72.9929   23.6155  -78.4764 H         1 UNK         0.0855 
     98 H98       -74.5256   22.5569  -76.0431 H         1 UNK         0.0814 
     99 H99       -73.1329   21.7828  -76.7862 H         1 UNK         0.0814 
    100 H100      -74.6311   21.9370  -77.6894 H         1 UNK         0.0814 
    101 H101      -75.5578   24.3367  -77.4621 H         1 UNK         0.3105 
    102 H102      -75.6386   27.6203  -78.9131 H         1 UNK         0.0547 
    103 H103      -76.2840   26.0189  -80.7034 H         1 UNK         0.0837 
    104 H104      -77.1122   25.0046  -79.5323 H         1 UNK         0.0837 
    105 H105      -77.7086   26.6272  -79.8745 H         1 UNK         0.0837 
    106 H106      -77.6145   26.3146  -77.3963 H         1 UNK         0.3020 
    107 H107      -76.5291   27.3522  -74.1355 H         1 UNK         0.1245 
    108 H108      -78.9972   27.9794  -74.2946 H         1 UNK         0.0781 
    109 H109      -78.8505   28.0477  -76.0208 H         1 UNK         0.0781 
    110 H110      -78.1391   31.5127  -73.2863 H         1 UNK         0.0836 
    111 H111      -79.4290   30.3426  -73.3797 H         1 UNK         0.0836 
    112 H112      -78.5867   25.5781  -75.1174 H         1 UNK         0.3022 
    113 H113      -76.7059   22.5863  -74.9194 H         1 UNK         0.0747 
    114 H114      -77.2675   22.9081  -72.5237 H         1 UNK         0.0793 
    115 H115      -78.4274   21.8527  -73.3145 H         1 UNK         0.0793 
    116 H116      -78.8545   23.5212  -72.9546 H         1 UNK         0.0793 
    117 H117      -79.4969   23.2937  -75.3625 H         1 UNK         0.3047 
    118 H118      -79.1252   23.6631  -78.8944 H         1 UNK         0.0822 
    119 H119      -79.1066   21.1731  -78.6510 H         1 UNK         0.0807 
    120 H120      -80.7145   21.7664  -79.0295 H         1 UNK         0.0807 
    121 H121      -80.3184   21.2764  -77.3813 H         1 UNK         0.0807 
    122 H122      -81.4668   23.5003  -77.3170 H         1 UNK         0.2946 
    123 H123      -82.0268   26.8456  -77.2551 H         1 UNK         0.1144 
    124 H124      -83.2733   24.7412  -77.8109 H         1 UNK         0.0793 
    125 H125      -84.0048   25.5971  -76.4700 H         1 UNK         0.0793 
    126 H126      -83.0437   24.1603  -76.1595 H         1 UNK         0.0793 
    127 H127      -82.0785   27.3219  -75.0607 H         1 UNK         0.2896 
@<TRIPOS>BOND
     1    1    2 1    
     2    1   67 1    
     3    1   68 1    
     4    1   69 1    
     5    2    3 2    
     6    2    4 am   BACKBONE|DICT|INTERRES
     7    4    5 1    
     8    4   70 1    
     9    5    6 1    
    10    5   65 1    
    11    5   71 1    
    12    6    7 1    
    13    6   72 1    
    14    6   73 1    
    15    7    8 1    
    16    8    9 1    
    17    8   74 1    
    18    8   75 1    
    19    9   10 ar   
    20    9   14 ar   
    21   10   11 ar   
    22   10   76 1    
    23   11   12 ar   
    24   11   48 1    
    25   12   13 ar   
    26   12   77 1    
    27   13   14 ar   
    28   13   15 1    
    29   14   78 1    
    30   15   16 1    
    31   15   79 1    
    32   15   80 1    
    33   16   17 1    
    34   17   18 1    
    35   17   81 1    
    36   17   82 1    
    37   18   19 1    
    38   18   22 1    
    39   18   83 1    
    40   19   20 am   BACKBONE|DICT|INTERRES
    41   19   21 2    
    42   20   84 1    
    43   20   85 1    
    44   22   23 am   BACKBONE|DICT|INTERRES
    45   22   86 1    
    46   23   24 2    
    47   23   25 1    
    48   25   26 1    
    49   25   27 1    
    50   25   87 1    
    51   26   88 1    
    52   26   89 1    
    53   26   90 1    
    54   27   28 am   BACKBONE|DICT|INTERRES
    55   27   91 1    
    56   28   29 2    
    57   28   30 1    
    58   30   31 1    
    59   30   32 1    
    60   30   92 1    
    61   31   93 1    
    62   31   94 1    
    63   31   95 1    
    64   32   33 am   BACKBONE|DICT|INTERRES
    65   32   96 1    
    66   33   34 2    
    67   33   35 1    
    68   35   36 1    
    69   35   37 1    
    70   35   97 1    
    71   36   98 1    
    72   36   99 1    
    73   36  100 1    
    74   37   38 am   BACKBONE|DICT|INTERRES
    75   37  101 1    
    76   38   39 2    
    77   38   40 1    
    78   40   41 1    
    79   40   42 1    
    80   40  102 1    
    81   41  103 1    
    82   41  104 1    
    83   41  105 1    
    84   42   43 am   BACKBONE|DICT|INTERRES
    85   42  106 1    
    86   43   44 2    
    87   43   45 1    
    88   45   46 1    
    89   45   49 1    
    90   45  107 1    
    91   46   47 1    
    92   46  108 1    
    93   46  109 1    
    94   47   48 1    
    95   48  110 1    
    96   48  111 1    
    97   49   50 am   BACKBONE|DICT|INTERRES
    98   49  112 1    
    99   50   51 2    
   100   50   52 1    
   101   52   53 1    
   102   52   54 1    
   103   52  113 1    
   104   53  114 1    
   105   53  115 1    
   106   53  116 1    
   107   54   55 am   BACKBONE|DICT|INTERRES
   108   54  117 1    
   109   55   56 2    
   110   55   57 1    
   111   57   58 1    
   112   57   59 1    
   113   57  118 1    
   114   58  119 1    
   115   58  120 1    
   116   58  121 1    
   117   59   60 am   BACKBONE|DICT|INTERRES
   118   59  122 1    
   119   60   61 2    
   120   60   62 1    
   121   62   63 1    
   122   62   64 1    
   123   62  123 1    
   124   63  124 1    
   125   63  125 1    
   126   63  126 1    
   127   64   65 am   BACKBONE|DICT|INTERRES
   128   64  127 1    
   129   65   66 2    
@<TRIPOS>SUBSTRUCTURE
     1 UNK         1 GROUP             0       ****    0 ROOT    
