@<TRIPOS>MOLECULE
3R135
127   129    1
SMALL
USER_CHARGES


@<TRIPOS>ATOM
      1 CA        -83.2260   30.2843  -73.9894 C.3       0 UNK        -0.1998 
      2 C         -82.3523   29.0426  -74.0834 C.2       0 UNK         0.4909 
      3 O         -81.4619   28.9871  -74.9309 O.2       0 UNK        -0.5240 
      4 N         -82.5937   28.0548  -73.2113 N.am      1 UNK        -0.4739 
      5 CA        -81.8858   26.7702  -73.1761 C.3       1 UNK         0.0864 
      6 C6        -81.8154   26.2043  -71.7298 C.3       11 UNK        -0.0881 
      7 S7        -80.2895   25.2386  -71.4389 S.3       11 UNK        -0.2682 
      8 C8        -79.4766   26.1749  -70.1012 C.3       11 UNK         0.0289 
      9 C9        -78.5564   27.2809  -70.6089 C.ar      11 UNK        -0.0687 
     10 C10       -79.0727   28.3818  -71.3008 C.ar      11 UNK        -0.0823 
     11 C11       -78.2331   29.4187  -71.7166 C.ar      11 UNK        -0.0830 
     12 C12       -76.8775   29.3761  -71.3879 C.ar      11 UNK        -0.1021 
     13 C13       -76.3361   28.2677  -70.7337 C.ar      11 UNK        -0.0753 
     14 C14       -77.1819   27.2217  -70.3487 C.ar      11 UNK        -0.0933 
     15 C15       -74.8426   28.2039  -70.4393 C.3       11 UNK         0.0166 
     16 S16       -73.8499   28.0716  -71.9634 S.3       11 UNK        -0.2615 
     17 C17       -73.6560   29.8270  -72.4476 C.3       11 UNK        -0.0865 
     18 CA        -72.3068   30.1459  -73.1376 C.3       10 UNK         0.0862 
     19 C         -71.0886   29.9780  -72.1797 C.2       10 UNK         0.5551 
     20 N         -70.1403   29.0866  -72.4467 N.am      10 UNK        -0.7319 
     21 O         -70.9983   30.6857  -71.1793 O.2       10 UNK        -0.5018 
     22 N         -72.1949   29.4436  -74.4216 N.am      10 UNK        -0.4509 
     23 C         -71.3711   29.7905  -75.4178 C.2       10 UNK         0.4899 
     24 O         -70.6947   30.8206  -75.4141 O.2       10 UNK        -0.4839 
     25 CA        -71.2808   28.8190  -76.6136 C.3       9 UNK         0.0222 
     26 CB        -69.9307   28.9190  -77.3536 C.3       9 UNK        -0.1966 
     27 N         -71.5695   27.4190  -76.2725 N.am      9 UNK        -0.4218 
     28 C         -70.9665   26.6573  -75.3434 C.2       9 UNK         0.5020 
     29 O         -70.0500   27.0591  -74.6243 O.2       9 UNK        -0.5274 
     30 CA        -71.4842   25.2196  -75.1530 C.3       8 UNK         0.0270 
     31 CB        -71.8792   24.9652  -73.6873 C.3       8 UNK        -0.1976 
     32 N         -72.6329   24.9295  -76.0170 N.am      8 UNK        -0.4313 
     33 C         -72.5494   24.3008  -77.1967 C.2       8 UNK         0.5041 
     34 O         -71.5043   23.8317  -77.6495 O.2       8 UNK        -0.5577 
     35 CA        -73.8348   24.1918  -78.0333 C.3       7 UNK         0.0284 
     36 CB        -74.6280   22.9315  -77.6527 C.3       7 UNK        -0.1958 
     37 N         -74.7102   25.3670  -77.9668 N.am      7 UNK        -0.4454 
     38 C         -74.3885   26.5907  -78.4121 C.2       7 UNK         0.5089 
     39 O         -73.2619   26.9043  -78.7942 O.2       7 UNK        -0.5125 
     40 CA        -75.5071   27.6424  -78.4382 C.3       6 UNK         0.0408 
     41 CB        -76.4796   27.3674  -79.5966 C.3       6 UNK        -0.1791 
     42 N         -76.2451   27.6565  -77.1784 N.am      6 UNK        -0.4762 
     43 C         -75.9911   28.4844  -76.1547 C.2       6 UNK         0.5007 
     44 O         -75.1490   29.3823  -76.1895 O.2       6 UNK        -0.5032 
     45 CA        -76.7901   28.2352  -74.8558 C.3       5 UNK         0.0783 
     46 C46       -78.1259   29.0287  -74.8506 C.3       11 UNK        -0.0857 
     47 S47       -77.9366   30.7117  -74.1668 S.3       11 UNK        -0.2512 
     48 C48       -78.7794   30.5703  -72.5505 C.3       11 UNK         0.0225 
     49 N         -77.0109   26.8105  -74.5784 N.am      5 UNK        -0.4615 
     50 C         -76.0556   25.8737  -74.4984 C.2       4 UNK         0.5053 
     51 O         -74.8571   26.0858  -74.6773 O.2       4 UNK        -0.5105 
     52 CA        -76.5207   24.4326  -74.2429 C.3       4 UNK         0.0263 
     53 CB        -76.6976   24.2008  -72.7342 C.3       4 UNK        -0.1981 
     54 N         -77.7403   24.0198  -74.9558 N.am      4 UNK        -0.4224 
     55 C         -78.0090   24.1960  -76.2627 C.2       3 UNK         0.4895 
     56 O         -77.3111   24.8569  -77.0323 O.2       3 UNK        -0.5091 
     57 CA        -79.2678   23.5160  -76.8119 C.3       3 UNK         0.0250 
     58 CB        -78.9364   22.0684  -77.2292 C.3       3 UNK        -0.1996 
     59 N         -80.3590   23.5602  -75.8363 N.am      3 UNK        -0.4254 
     60 C         -81.6355   23.2230  -76.0638 C.2       2 UNK         0.5004 
     61 O         -82.0621   22.8091  -77.1422 O.2       2 UNK        -0.5226 
     62 CA        -82.6055   23.3815  -74.8813 C.3       2 UNK         0.0269 
     63 CB        -82.6936   22.0722  -74.0801 C.3       2 UNK        -0.1926 
     64 N         -82.2096   24.4703  -73.9832 N.am      2 UNK        -0.4687 
     65 C         -82.4710   25.7662  -74.2007 C.2       1 UNK         0.5165 
     66 O         -83.1380   26.1622  -75.1599 O.2       1 UNK        -0.5079 
     67 H67       -82.6077   31.1649  -73.8164 H         1 UNK         0.0900 
     68 H68       -83.7720   30.4287  -74.9212 H         1 UNK         0.0900 
     69 H69       -83.9506   30.2138  -73.1783 H         1 UNK         0.0900 
     70 H70       -83.3681   28.1453  -72.5688 H         1 UNK         0.2959 
     71 H71       -80.8630   26.9609  -73.5088 H         1 UNK         0.1079 
     72 H72       -82.6852   25.5875  -71.4939 H         1 UNK         0.0837 
     73 H73       -81.8531   27.0174  -71.0041 H         1 UNK         0.0837 
     74 H74       -80.2218   26.5980  -69.4265 H         1 UNK         0.0685 
     75 H75       -78.9076   25.4635  -69.5007 H         1 UNK         0.0685 
     76 H76       -80.1277   28.4336  -71.5224 H         1 UNK         0.1434 
     77 H77       -76.2402   30.1954  -71.6835 H         1 UNK         0.1329 
     78 H78       -76.7714   26.3681  -69.8271 H         1 UNK         0.1335 
     79 H79       -74.6189   27.3372  -69.8156 H         1 UNK         0.0680 
     80 H80       -74.5391   29.0769  -69.8603 H         1 UNK         0.0680 
     81 H81       -74.4694   30.0895  -73.1251 H         1 UNK         0.1032 
     82 H82       -73.7804   30.4679  -71.5732 H         1 UNK         0.1032 
     83 H83       -72.3328   31.2115  -73.3742 H         1 UNK         0.0461 
     84 H84       -69.3585   28.9974  -71.8183 H         1 UNK         0.3453 
     85 H85       -70.2020   28.4841  -73.2614 H         1 UNK         0.3453 
     86 H86       -72.7134   28.5804  -74.4972 H         1 UNK         0.2984 
     87 H87       -72.0640   29.1261  -77.3084 H         1 UNK         0.0554 
     88 H88       -69.7625   29.9278  -77.7326 H         1 UNK         0.0847 
     89 H89       -69.8978   28.2451  -78.2097 H         1 UNK         0.0847 
     90 H90       -69.0936   28.6728  -76.6994 H         1 UNK         0.0847 
     91 H91       -72.2886   26.9849  -76.8386 H         1 UNK         0.3141 
     92 H92       -70.6562   24.5494  -75.3926 H         1 UNK         0.0743 
     93 H93       -71.0203   25.0804  -73.0249 H         1 UNK         0.0784 
     94 H94       -72.6439   25.6625  -73.3461 H         1 UNK         0.0784 
     95 H95       -72.2616   23.9541  -73.5481 H         1 UNK         0.0784 
     96 H96       -73.5297   25.2976  -75.7002 H         1 UNK         0.3213 
     97 H97       -73.5266   24.0859  -79.0758 H         1 UNK         0.0855 
     98 H98       -74.9842   22.9721  -76.6244 H         1 UNK         0.0814 
     99 H99       -74.0095   22.0380  -77.7475 H         1 UNK         0.0814 
    100 H100      -75.4933   22.7959  -78.3018 H         1 UNK         0.0814 
    101 H101      -75.6643   25.2019  -77.6494 H         1 UNK         0.3105 
    102 H102      -75.0486   28.6180  -78.6137 H         1 UNK         0.0547 
    103 H103      -77.2402   28.1452  -79.6658 H         1 UNK         0.0837 
    104 H104      -75.9525   27.3448  -80.5513 H         1 UNK         0.0837 
    105 H105      -76.9907   26.4104  -79.4828 H         1 UNK         0.0837 
    106 H106      -76.9004   26.8964  -77.0313 H         1 UNK         0.3020 
    107 H107      -76.1642   28.5892  -74.0350 H         1 UNK         0.1245 
    108 H108      -78.8770   28.5081  -74.2561 H         1 UNK         0.0781 
    109 H109      -78.5625   29.0988  -75.8490 H         1 UNK         0.0781 
    110 H110      -79.8503   30.4531  -72.7234 H         1 UNK         0.0836 
    111 H111      -78.6554   31.5037  -71.9999 H         1 UNK         0.0836 
    112 H112      -77.9655   26.5247  -74.4275 H         1 UNK         0.3022 
    113 H113      -75.7196   23.7754  -74.5834 H         1 UNK         0.0747 
    114 H114      -76.9175   23.1569  -72.5105 H         1 UNK         0.0793 
    115 H115      -75.7881   24.4624  -72.1906 H         1 UNK         0.0793 
    116 H116      -77.5023   24.8111  -72.3252 H         1 UNK         0.0793 
    117 H117      -78.3507   23.4095  -74.4334 H         1 UNK         0.3047 
    118 H118      -79.5810   24.0747  -77.6964 H         1 UNK         0.0822 
    119 H119      -78.0772   22.0423  -77.9012 H         1 UNK         0.0807 
    120 H120      -79.7654   21.6004  -77.7596 H         1 UNK         0.0807 
    121 H121      -78.6965   21.4441  -76.3678 H         1 UNK         0.0807 
    122 H122      -80.1378   23.9545  -74.9345 H         1 UNK         0.2946 
    123 H123      -83.5947   23.5976  -75.2925 H         1 UNK         0.1144 
    124 H124      -83.4246   22.1492  -73.2750 H         1 UNK         0.0793 
    125 H125      -81.7342   21.8004  -73.6379 H         1 UNK         0.0793 
    126 H126      -83.0040   21.2445  -74.7195 H         1 UNK         0.0793 
    127 H127      -81.6849   24.2211  -73.1540 H         1 UNK         0.2896 
@<TRIPOS>BOND
     1    1    2 1    
     2    1   67 1    
     3    1   68 1    
     4    1   69 1    
     5    2    3 2    
     6    2    4 am   BACKBONE|DICT|INTERRES
     7    4    5 1    
     8    4   70 1    
     9    5    6 1    
    10    5   65 1    
    11    5   71 1    
    12    6    7 1    
    13    6   72 1    
    14    6   73 1    
    15    7    8 1    
    16    8    9 1    
    17    8   74 1    
    18    8   75 1    
    19    9   10 ar   
    20    9   14 ar   
    21   10   11 ar   
    22   10   76 1    
    23   11   12 ar   
    24   11   48 1    
    25   12   13 ar   
    26   12   77 1    
    27   13   14 ar   
    28   13   15 1    
    29   14   78 1    
    30   15   16 1    
    31   15   79 1    
    32   15   80 1    
    33   16   17 1    
    34   17   18 1    
    35   17   81 1    
    36   17   82 1    
    37   18   19 1    
    38   18   22 1    
    39   18   83 1    
    40   19   20 am   BACKBONE|DICT|INTERRES
    41   19   21 2    
    42   20   84 1    
    43   20   85 1    
    44   22   23 am   BACKBONE|DICT|INTERRES
    45   22   86 1    
    46   23   24 2    
    47   23   25 1    
    48   25   26 1    
    49   25   27 1    
    50   25   87 1    
    51   26   88 1    
    52   26   89 1    
    53   26   90 1    
    54   27   28 am   BACKBONE|DICT|INTERRES
    55   27   91 1    
    56   28   29 2    
    57   28   30 1    
    58   30   31 1    
    59   30   32 1    
    60   30   92 1    
    61   31   93 1    
    62   31   94 1    
    63   31   95 1    
    64   32   33 am   BACKBONE|DICT|INTERRES
    65   32   96 1    
    66   33   34 2    
    67   33   35 1    
    68   35   36 1    
    69   35   37 1    
    70   35   97 1    
    71   36   98 1    
    72   36   99 1    
    73   36  100 1    
    74   37   38 am   BACKBONE|DICT|INTERRES
    75   37  101 1    
    76   38   39 2    
    77   38   40 1    
    78   40   41 1    
    79   40   42 1    
    80   40  102 1    
    81   41  103 1    
    82   41  104 1    
    83   41  105 1    
    84   42   43 am   BACKBONE|DICT|INTERRES
    85   42  106 1    
    86   43   44 2    
    87   43   45 1    
    88   45   46 1    
    89   45   49 1    
    90   45  107 1    
    91   46   47 1    
    92   46  108 1    
    93   46  109 1    
    94   47   48 1    
    95   48  110 1    
    96   48  111 1    
    97   49   50 am   BACKBONE|DICT|INTERRES
    98   49  112 1    
    99   50   51 2    
   100   50   52 1    
   101   52   53 1    
   102   52   54 1    
   103   52  113 1    
   104   53  114 1    
   105   53  115 1    
   106   53  116 1    
   107   54   55 am   BACKBONE|DICT|INTERRES
   108   54  117 1    
   109   55   56 2    
   110   55   57 1    
   111   57   58 1    
   112   57   59 1    
   113   57  118 1    
   114   58  119 1    
   115   58  120 1    
   116   58  121 1    
   117   59   60 am   BACKBONE|DICT|INTERRES
   118   59  122 1    
   119   60   61 2    
   120   60   62 1    
   121   62   63 1    
   122   62   64 1    
   123   62  123 1    
   124   63  124 1    
   125   63  125 1    
   126   63  126 1    
   127   64   65 am   BACKBONE|DICT|INTERRES
   128   64  127 1    
   129   65   66 2    
@<TRIPOS>SUBSTRUCTURE
     1 UNK         1 GROUP             0       ****    0 ROOT    
