@<TRIPOS>MOLECULE
3R135
127   129    1
SMALL
USER_CHARGES


@<TRIPOS>ATOM
      1 CA        -82.3320   25.9578  -73.2952 C.3       0 UNK        -0.1998 
      2 C         -81.6772   26.5398  -74.5384 C.2       0 UNK         0.4909 
      3 O         -82.2780   26.5308  -75.6132 O.2       0 UNK        -0.5240 
      4 N         -80.4411   27.0312  -74.4009 N.am      1 UNK        -0.4739 
      5 CA        -79.6204   27.6177  -75.4617 C.3       1 UNK         0.0864 
      6 C6        -78.3920   28.3545  -74.8696 C.3       11 UNK        -0.0881 
      7 S7        -78.8329   29.9545  -74.1081 S.3       11 UNK        -0.2682 
      8 C8        -79.2446   29.5193  -72.3853 C.3       11 UNK         0.0289 
      9 C9        -78.0814   28.8870  -71.6339 C.ar      11 UNK        -0.0687 
     10 C10       -78.1282   27.5370  -71.2727 C.ar      11 UNK        -0.0823 
     11 C11       -77.0707   26.9496  -70.5725 C.ar      11 UNK        -0.0830 
     12 C12       -75.9660   27.7303  -70.2181 C.ar      11 UNK        -0.1021 
     13 C13       -75.8984   29.0758  -70.5899 C.ar      11 UNK        -0.0753 
     14 C14       -76.9629   29.6523  -71.2896 C.ar      11 UNK        -0.0933 
     15 C15       -74.6583   29.8916  -70.2650 C.3       11 UNK         0.0166 
     16 S16       -73.3637   29.5835  -71.5030 S.3       11 UNK        -0.2615 
     17 C17       -72.0423   30.7120  -70.9440 C.3       11 UNK        -0.0865 
     18 CA        -72.0076   32.0629  -71.7250 C.3       10 UNK         0.0862 
     19 C         -70.8855   33.0261  -71.2280 C.2       10 UNK         0.5551 
     20 N         -70.7154   33.1771  -69.9207 N.am      10 UNK        -0.7319 
     21 O         -70.1901   33.6757  -72.0076 O.2       10 UNK        -0.5018 
     22 N         -72.0240   31.8975  -73.1904 N.am      10 UNK        -0.4509 
     23 C         -71.1198   31.2430  -73.9288 C.2       10 UNK         0.4899 
     24 O         -70.1398   30.6476  -73.4749 O.2       10 UNK        -0.4839 
     25 CA        -71.3478   31.2590  -75.4479 C.3       9 UNK         0.0222 
     26 CB        -70.2048   31.9942  -76.1681 C.3       9 UNK        -0.1966 
     27 N         -71.4490   29.8920  -75.9581 N.am      9 UNK        -0.4218 
     28 C         -72.5384   29.1226  -75.8399 C.2       9 UNK         0.5020 
     29 O         -73.6002   29.5052  -75.3412 O.2       9 UNK        -0.5274 
     30 CA        -72.4047   27.6739  -76.3449 C.3       8 UNK         0.0270 
     31 CB        -71.8717   26.7680  -75.2229 C.3       8 UNK        -0.1976 
     32 N         -73.6812   27.1416  -76.8314 N.am      8 UNK        -0.4313 
     33 C         -74.3224   27.5910  -77.9210 C.2       8 UNK         0.5041 
     34 O         -73.8422   28.4280  -78.6893 O.2       8 UNK        -0.5577 
     35 CA        -75.7370   27.0365  -78.1938 C.3       7 UNK         0.0284 
     36 CB        -76.1583   27.1531  -79.6747 C.3       7 UNK        -0.1958 
     37 N         -75.9548   25.6746  -77.6956 N.am      7 UNK        -0.4454 
     38 C         -75.3126   24.5572  -78.0573 C.2       7 UNK         0.5089 
     39 O         -74.4285   24.5218  -78.9151 O.2       7 UNK        -0.5125 
     40 CA        -75.7329   23.2608  -77.3296 C.3       6 UNK         0.0408 
     41 CB        -74.6810   22.1429  -77.4839 C.3       6 UNK        -0.1791 
     42 N         -76.0766   23.4127  -75.9054 N.am      6 UNK        -0.4762 
     43 C         -75.3517   24.0048  -74.9404 C.2       6 UNK         0.5007 
     44 O         -74.3497   24.6830  -75.1689 O.2       6 UNK        -0.5032 
     45 CA        -75.7631   23.7394  -73.4725 C.3       5 UNK         0.0783 
     46 C46       -75.5332   24.9673  -72.5490 C.3       11 UNK        -0.0857 
     47 S47       -75.6448   24.5452  -70.7744 S.3       11 UNK        -0.2512 
     48 C48       -77.1226   25.4657  -70.2251 C.3       11 UNK         0.0225 
     49 N         -77.0768   23.0834  -73.3496 N.am      5 UNK        -0.4615 
     50 C         -78.2845   23.6600  -73.3880 C.2       4 UNK         0.5053 
     51 O         -78.4936   24.8718  -73.4029 O.2       4 UNK        -0.5105 
     52 CA        -79.4846   22.7144  -73.4148 C.3       4 UNK         0.0263 
     53 CB        -80.2990   22.8146  -72.1116 C.3       4 UNK        -0.1981 
     54 N         -80.3037   23.0743  -74.5694 N.am      4 UNK        -0.4224 
     55 C         -81.1610   22.2540  -75.1904 C.2       3 UNK         0.4895 
     56 O         -81.3767   21.0972  -74.8266 O.2       3 UNK        -0.5091 
     57 CA        -81.9145   22.7923  -76.4204 C.3       3 UNK         0.0250 
     58 CB        -83.3708   23.1323  -76.0620 C.3       3 UNK        -0.1996 
     59 N         -81.2837   23.9631  -77.0361 N.am      3 UNK        -0.4254 
     60 C         -80.2581   23.9021  -77.8995 C.2       2 UNK         0.5004 
     61 O         -79.7141   22.8531  -78.2441 O.2       2 UNK        -0.5226 
     62 CA        -79.7482   25.2352  -78.4768 C.3       2 UNK         0.0269 
     63 CB        -80.4540   25.5586  -79.8028 C.3       2 UNK        -0.1926 
     64 N         -79.9246   26.3529  -77.5464 N.am      2 UNK        -0.4687 
     65 C         -79.1920   26.5081  -76.4376 C.2       1 UNK         0.5165 
     66 O         -78.2370   25.7841  -76.1603 O.2       1 UNK        -0.5079 
     67 H67       -83.3271   26.3815  -73.1629 H         1 UNK         0.0900 
     68 H68       -82.4312   24.8774  -73.3880 H         1 UNK         0.0900 
     69 H69       -81.7537   26.1694  -72.3959 H         1 UNK         0.0900 
     70 H70       -79.9544   26.8932  -73.5274 H         1 UNK         0.2959 
     71 H71       -80.2262   28.3402  -76.0133 H         1 UNK         0.1079 
     72 H72       -77.6701   28.5823  -75.6559 H         1 UNK         0.0837 
     73 H73       -77.8570   27.7234  -74.1572 H         1 UNK         0.0837 
     74 H74       -80.1187   28.8679  -72.3738 H         1 UNK         0.0685 
     75 H75       -79.5461   30.4286  -71.8636 H         1 UNK         0.0685 
     76 H76       -78.9836   26.9356  -71.5462 H         1 UNK         0.1434 
     77 H77       -75.1389   27.2799  -69.6862 H         1 UNK         0.1329 
     78 H78       -76.9157   30.6921  -71.5831 H         1 UNK         0.1335 
     79 H79       -74.2884   29.6294  -69.2726 H         1 UNK         0.0680 
     80 H80       -74.8954   30.9565  -70.2422 H         1 UNK         0.0680 
     81 H81       -72.1666   30.8834  -69.8741 H         1 UNK         0.1032 
     82 H82       -71.0895   30.1903  -71.0474 H         1 UNK         0.1032 
     83 H83       -72.9382   32.5860  -71.5020 H         1 UNK         0.0461 
     84 H84       -70.0020   33.8104  -69.5942 H         1 UNK         0.3453 
     85 H85       -71.2906   32.6891  -69.2530 H         1 UNK         0.3453 
     86 H86       -72.7863   32.3580  -73.6657 H         1 UNK         0.2984 
     87 H87       -72.2782   31.7866  -75.6700 H         1 UNK         0.0554 
     88 H88       -70.1165   33.0204  -75.8085 H         1 UNK         0.0847 
     89 H89       -70.3777   32.0419  -77.2434 H         1 UNK         0.0847 
     90 H90       -69.2416   31.5093  -76.0034 H         1 UNK         0.0847 
     91 H91       -70.6037   29.4877  -76.3350 H         1 UNK         0.3141 
     92 H92       -71.6960   27.6555  -77.1756 H         1 UNK         0.0743 
     93 H93       -72.5514   26.7453  -74.3696 H         1 UNK         0.0784 
     94 H94       -71.7365   25.7433  -75.5701 H         1 UNK         0.0784 
     95 H95       -70.9046   27.1181  -74.8594 H         1 UNK         0.0784 
     96 H96       -74.1196   26.4247  -76.2617 H         1 UNK         0.3213 
     97 H97       -76.4103   27.6718  -77.6176 H         1 UNK         0.0855 
     98 H98       -75.4972   26.5842  -80.3290 H         1 UNK         0.0814 
     99 H99       -76.1310   28.1906  -80.0095 H         1 UNK         0.0814 
    100 H100      -77.1756   26.7942  -79.8286 H         1 UNK         0.0814 
    101 H101      -76.6799   25.5868  -76.9818 H         1 UNK         0.3105 
    102 H102      -76.6457   22.9261  -77.8249 H         1 UNK         0.0547 
    103 H103      -75.0098   21.2181  -77.0102 H         1 UNK         0.0837 
    104 H104      -73.7267   22.4274  -77.0391 H         1 UNK         0.0837 
    105 H105      -74.4967   21.9155  -78.5347 H         1 UNK         0.0837 
    106 H106      -76.9181   22.9371  -75.6143 H         1 UNK         0.3020 
    107 H107      -75.0480   22.9820  -73.1466 H         1 UNK         0.1245 
    108 H108      -76.2120   25.7798  -72.8070 H         1 UNK         0.0781 
    109 H109      -74.5320   25.3757  -72.6974 H         1 UNK         0.0781 
    110 H110      -77.2218   25.3597  -69.1442 H         1 UNK         0.0836 
    111 H111      -78.0051   24.9954  -70.6606 H         1 UNK         0.0836 
    112 H112      -77.0363   22.0752  -73.2930 H         1 UNK         0.3022 
    113 H113      -79.1313   21.6879  -73.5352 H         1 UNK         0.0747 
    114 H114      -81.1638   22.1513  -72.1281 H         1 UNK         0.0793 
    115 H115      -79.6902   22.5322  -71.2519 H         1 UNK         0.0793 
    116 H116      -80.6573   23.8290  -71.9355 H         1 UNK         0.0793 
    117 H117      -80.1306   23.9986  -74.9432 H         1 UNK         0.3047 
    118 H118      -81.9368   21.9847  -77.1557 H         1 UNK         0.0822 
    119 H119      -83.9402   23.4119  -76.9486 H         1 UNK         0.0807 
    120 H120      -83.4358   23.9560  -75.3521 H         1 UNK         0.0807 
    121 H121      -83.8746   22.2747  -75.6135 H         1 UNK         0.0807 
    122 H122      -81.6635   24.8713  -76.7897 H         1 UNK         0.2946 
    123 H123      -78.6819   25.1134  -78.6802 H         1 UNK         0.1144 
    124 H124      -80.0490   26.4633  -80.2567 H         1 UNK         0.0793 
    125 H125      -81.5268   25.7012  -79.6665 H         1 UNK         0.0793 
    126 H126      -80.3212   24.7494  -80.5224 H         1 UNK         0.0793 
    127 H127      -80.7246   26.9534  -77.6938 H         1 UNK         0.2896 
@<TRIPOS>BOND
     1    1    2 1    
     2    1   67 1    
     3    1   68 1    
     4    1   69 1    
     5    2    3 2    
     6    2    4 am   BACKBONE|DICT|INTERRES
     7    4    5 1    
     8    4   70 1    
     9    5    6 1    
    10    5   65 1    
    11    5   71 1    
    12    6    7 1    
    13    6   72 1    
    14    6   73 1    
    15    7    8 1    
    16    8    9 1    
    17    8   74 1    
    18    8   75 1    
    19    9   10 ar   
    20    9   14 ar   
    21   10   11 ar   
    22   10   76 1    
    23   11   12 ar   
    24   11   48 1    
    25   12   13 ar   
    26   12   77 1    
    27   13   14 ar   
    28   13   15 1    
    29   14   78 1    
    30   15   16 1    
    31   15   79 1    
    32   15   80 1    
    33   16   17 1    
    34   17   18 1    
    35   17   81 1    
    36   17   82 1    
    37   18   19 1    
    38   18   22 1    
    39   18   83 1    
    40   19   20 am   BACKBONE|DICT|INTERRES
    41   19   21 2    
    42   20   84 1    
    43   20   85 1    
    44   22   23 am   BACKBONE|DICT|INTERRES
    45   22   86 1    
    46   23   24 2    
    47   23   25 1    
    48   25   26 1    
    49   25   27 1    
    50   25   87 1    
    51   26   88 1    
    52   26   89 1    
    53   26   90 1    
    54   27   28 am   BACKBONE|DICT|INTERRES
    55   27   91 1    
    56   28   29 2    
    57   28   30 1    
    58   30   31 1    
    59   30   32 1    
    60   30   92 1    
    61   31   93 1    
    62   31   94 1    
    63   31   95 1    
    64   32   33 am   BACKBONE|DICT|INTERRES
    65   32   96 1    
    66   33   34 2    
    67   33   35 1    
    68   35   36 1    
    69   35   37 1    
    70   35   97 1    
    71   36   98 1    
    72   36   99 1    
    73   36  100 1    
    74   37   38 am   BACKBONE|DICT|INTERRES
    75   37  101 1    
    76   38   39 2    
    77   38   40 1    
    78   40   41 1    
    79   40   42 1    
    80   40  102 1    
    81   41  103 1    
    82   41  104 1    
    83   41  105 1    
    84   42   43 am   BACKBONE|DICT|INTERRES
    85   42  106 1    
    86   43   44 2    
    87   43   45 1    
    88   45   46 1    
    89   45   49 1    
    90   45  107 1    
    91   46   47 1    
    92   46  108 1    
    93   46  109 1    
    94   47   48 1    
    95   48  110 1    
    96   48  111 1    
    97   49   50 am   BACKBONE|DICT|INTERRES
    98   49  112 1    
    99   50   51 2    
   100   50   52 1    
   101   52   53 1    
   102   52   54 1    
   103   52  113 1    
   104   53  114 1    
   105   53  115 1    
   106   53  116 1    
   107   54   55 am   BACKBONE|DICT|INTERRES
   108   54  117 1    
   109   55   56 2    
   110   55   57 1    
   111   57   58 1    
   112   57   59 1    
   113   57  118 1    
   114   58  119 1    
   115   58  120 1    
   116   58  121 1    
   117   59   60 am   BACKBONE|DICT|INTERRES
   118   59  122 1    
   119   60   61 2    
   120   60   62 1    
   121   62   63 1    
   122   62   64 1    
   123   62  123 1    
   124   63  124 1    
   125   63  125 1    
   126   63  126 1    
   127   64   65 am   BACKBONE|DICT|INTERRES
   128   64  127 1    
   129   65   66 2    
@<TRIPOS>SUBSTRUCTURE
     1 UNK         1 GROUP             0       ****    0 ROOT    
