@<TRIPOS>MOLECULE
3R135
127   129    1
SMALL
USER_CHARGES


@<TRIPOS>ATOM
      1 CA        -79.4360   29.2139  -76.8584 C.3       0 UNK        -0.1998 
      2 C         -79.4221   28.4366  -75.5531 C.2       0 UNK         0.4909 
      3 O         -78.6070   27.5266  -75.3891 O.2       0 UNK        -0.5240 
      4 N         -80.3311   28.7899  -74.6340 N.am      1 UNK        -0.4739 
      5 CA        -80.5309   28.1274  -73.3434 C.3       1 UNK         0.0864 
      6 C6        -81.1015   29.1078  -72.2822 C.3       11 UNK        -0.0881 
      7 S7        -80.7365   28.5496  -70.5814 S.3       11 UNK        -0.2682 
      8 C8        -79.2922   29.5733  -70.1469 C.3       11 UNK         0.0289 
      9 C9        -78.1352   29.3611  -71.1128 C.ar      11 UNK        -0.0687 
     10 C10       -77.3562   28.2034  -71.0385 C.ar      11 UNK        -0.0823 
     11 C11       -76.3133   27.9890  -71.9444 C.ar      11 UNK        -0.0830 
     12 C12       -76.0546   28.9520  -72.9283 C.ar      11 UNK        -0.1021 
     13 C13       -76.8212   30.1212  -73.0100 C.ar      11 UNK        -0.0753 
     14 C14       -77.8570   30.3165  -72.0938 C.ar      11 UNK        -0.0933 
     15 C15       -76.6017   31.1636  -74.1045 C.3       11 UNK         0.0166 
     16 S16       -74.8706   31.3777  -74.6336 S.3       11 UNK        -0.2615 
     17 C17       -74.1303   32.3139  -73.2503 C.3       11 UNK        -0.0865 
     18 CA        -72.8889   31.6292  -72.6117 C.3       10 UNK         0.0862 
     19 C         -73.2634   30.6292  -71.4773 C.2       10 UNK         0.5551 
     20 N         -72.8793   29.3600  -71.5411 N.am      10 UNK        -0.7319 
     21 O         -73.8860   31.0284  -70.4963 O.2       10 UNK        -0.5018 
     22 N         -71.9668   31.1055  -73.6321 N.am      10 UNK        -0.4509 
     23 C         -70.6683   30.8493  -73.4432 C.2       10 UNK         0.4899 
     24 O         -70.0601   31.1396  -72.4115 O.2       10 UNK        -0.4839 
     25 CA        -69.9286   30.1524  -74.6050 C.3       9 UNK         0.0222 
     26 CB        -68.6209   29.4744  -74.1434 C.3       9 UNK        -0.1966 
     27 N         -70.7461   29.1952  -75.3685 N.am      9 UNK        -0.4218 
     28 C         -71.4125   28.1308  -74.8959 C.2       9 UNK         0.5020 
     29 O         -71.5550   27.8789  -73.6979 O.2       9 UNK        -0.5274 
     30 CA        -72.0117   27.1824  -75.9490 C.3       8 UNK         0.0270 
     31 CB        -71.8074   25.7081  -75.5599 C.3       8 UNK        -0.1976 
     32 N         -73.4352   27.4440  -76.1676 N.am      8 UNK        -0.4313 
     33 C         -73.9086   28.5017  -76.8396 C.2       8 UNK         0.5041 
     34 O         -73.1741   29.3516  -77.3493 O.2       8 UNK        -0.5577 
     35 CA        -75.4422   28.6353  -76.9712 C.3       7 UNK         0.0284 
     36 CB        -75.8453   29.6600  -78.0546 C.3       7 UNK        -0.1958 
     37 N         -76.1436   27.3615  -77.1719 N.am      7 UNK        -0.4454 
     38 C         -75.9913   26.5023  -78.1918 C.2       7 UNK         0.5089 
     39 O         -75.2153   26.6753  -79.1333 O.2       7 UNK        -0.5125 
     40 CA        -76.8605   25.2285  -78.1301 C.3       6 UNK         0.0408 
     41 CB        -76.4889   24.1841  -79.2031 C.3       6 UNK        -0.1791 
     42 N         -76.8669   24.6207  -76.7955 N.am      6 UNK        -0.4762 
     43 C         -75.8035   24.1957  -76.0951 C.2       6 UNK         0.5007 
     44 O         -74.6523   24.1780  -76.5289 O.2       6 UNK        -0.5032 
     45 CA        -76.0779   23.7186  -74.6591 C.3       5 UNK         0.0783 
     46 C46       -76.4570   24.8974  -73.7245 C.3       11 UNK        -0.0857 
     47 S47       -75.0150   25.9651  -73.3987 S.3       11 UNK        -0.2512 
     48 C48       -75.4399   26.7447  -71.8081 C.3       11 UNK         0.0225 
     49 N         -77.1045   22.6773  -74.6850 N.am      5 UNK        -0.4615 
     50 C         -76.8481   21.3627  -74.7445 C.2       4 UNK         0.5053 
     51 O         -75.7159   20.8834  -74.6779 O.2       4 UNK        -0.5105 
     52 CA        -78.0481   20.4086  -74.9011 C.3       4 UNK         0.0263 
     53 CB        -78.4929   19.8785  -73.5283 C.3       4 UNK        -0.1981 
     54 N         -79.1942   21.0255  -75.5708 N.am      4 UNK        -0.4224 
     55 C         -79.2326   21.3729  -76.8655 C.2       3 UNK         0.4895 
     56 O         -78.3453   21.1016  -77.6744 O.2       3 UNK        -0.5091 
     57 CA        -80.4560   22.1863  -77.3336 C.3       3 UNK         0.0250 
     58 CB        -81.4762   21.2699  -78.0282 C.3       3 UNK        -0.1996 
     59 N         -81.1298   22.9411  -76.2663 N.am      3 UNK        -0.4254 
     60 C         -80.5534   23.9003  -75.5296 C.2       2 UNK         0.5004 
     61 O         -79.3718   24.2348  -75.6457 O.2       2 UNK        -0.5226 
     62 CA        -81.4075   24.5477  -74.4390 C.3       2 UNK         0.0269 
     63 CB        -81.4906   23.6407  -73.1971 C.3       2 UNK        -0.1926 
     64 N         -80.7836   25.8168  -74.0838 N.am      2 UNK        -0.4687 
     65 C         -81.3993   26.8682  -73.5412 C.2       1 UNK         0.5165 
     66 O         -82.5985   26.8788  -73.2548 O.2       1 UNK        -0.5079 
     67 H67       -80.4408   29.5542  -77.1079 H         1 UNK         0.0900 
     68 H68       -79.0815   28.5882  -77.6771 H         1 UNK         0.0900 
     69 H69       -78.7884   30.0859  -76.7809 H         1 UNK         0.0900 
     70 H70       -80.9872   29.5271  -74.8494 H         1 UNK         0.2959 
     71 H71       -79.5518   27.7910  -72.9939 H         1 UNK         0.1079 
     72 H72       -80.6738   30.1018  -72.4162 H         1 UNK         0.0837 
     73 H73       -82.1782   29.2484  -72.3925 H         1 UNK         0.0837 
     74 H74       -79.5895   30.6229  -70.1226 H         1 UNK         0.0685 
     75 H75       -78.9718   29.3235  -69.1344 H         1 UNK         0.0685 
     76 H76       -77.5676   27.4694  -70.2728 H         1 UNK         0.1434 
     77 H77       -75.2445   28.7907  -73.6243 H         1 UNK         0.1329 
     78 H78       -78.4644   31.2089  -72.1568 H         1 UNK         0.1335 
     79 H79       -77.1876   30.8645  -74.9739 H         1 UNK         0.0680 
     80 H80       -76.9911   32.1346  -73.7945 H         1 UNK         0.0680 
     81 H81       -74.8892   32.5405  -72.4986 H         1 UNK         0.1032 
     82 H82       -73.8298   33.2830  -73.6508 H         1 UNK         0.1032 
     83 H83       -72.3473   32.4229  -72.0931 H         1 UNK         0.0461 
     84 H84       -73.1149   28.7444  -70.7816 H         1 UNK         0.3453 
     85 H85       -72.3668   28.9998  -72.3408 H         1 UNK         0.3453 
     86 H86       -72.3985   30.8228  -74.5006 H         1 UNK         0.2984 
     87 H87       -69.6591   30.9448  -75.3046 H         1 UNK         0.0554 
     88 H88       -68.0918   29.0186  -74.9802 H         1 UNK         0.0847 
     89 H89       -68.8117   28.6963  -73.4033 H         1 UNK         0.0847 
     90 H90       -67.9407   30.1962  -73.6894 H         1 UNK         0.0847 
     91 H91       -70.7798   29.3528  -76.3678 H         1 UNK         0.3141 
     92 H92       -71.4847   27.3390  -76.8929 H         1 UNK         0.0743 
     93 H93       -72.3639   25.4413  -74.6614 H         1 UNK         0.0784 
     94 H94       -72.1232   25.0409  -76.3615 H         1 UNK         0.0784 
     95 H95       -70.7550   25.4994  -75.3635 H         1 UNK         0.0784 
     96 H96       -74.0860   26.7867  -75.7596 H         1 UNK         0.3213 
     97 H97       -75.8016   29.0080  -76.0133 H         1 UNK         0.0855 
     98 H98       -75.4835   30.6567  -77.7988 H         1 UNK         0.0814 
     99 H99       -76.9247   29.7282  -78.1693 H         1 UNK         0.0814 
    100 H100      -75.4252   29.4029  -79.0275 H         1 UNK         0.0814 
    101 H101      -76.8366   27.1331  -76.4641 H         1 UNK         0.3105 
    102 H102      -77.8860   25.5479  -78.3216 H         1 UNK         0.0547 
    103 H103      -76.6006   24.5979  -80.2058 H         1 UNK         0.0837 
    104 H104      -75.4559   23.8499  -79.1029 H         1 UNK         0.0837 
    105 H105      -77.1324   23.3065  -79.1406 H         1 UNK         0.0837 
    106 H106      -77.7820   24.5764  -76.3458 H         1 UNK         0.3020 
    107 H107      -75.1481   23.2863  -74.2804 H         1 UNK         0.1245 
    108 H108      -76.8163   24.5049  -72.7723 H         1 UNK         0.0781 
    109 H109      -77.2717   25.4996  -74.1308 H         1 UNK         0.0781 
    110 H110      -74.5121   27.0351  -71.3158 H         1 UNK         0.0836 
    111 H111      -75.9076   26.0052  -71.1567 H         1 UNK         0.0836 
    112 H112      -78.0553   23.0011  -74.8219 H         1 UNK         0.3022 
    113 H113      -77.7179   19.5611  -75.5058 H         1 UNK         0.0747 
    114 H114      -79.2929   19.1443  -73.6259 H         1 UNK         0.0793 
    115 H115      -77.6659   19.3868  -73.0139 H         1 UNK         0.0793 
    116 H116      -78.8485   20.6807  -72.8802 H         1 UNK         0.0793 
    117 H117      -79.9832   21.2687  -74.9907 H         1 UNK         0.3047 
    118 H118      -80.0926   22.9111  -78.0657 H         1 UNK         0.0822 
    119 H119      -82.2985   21.8430  -78.4571 H         1 UNK         0.0807 
    120 H120      -81.8985   20.5386  -77.3379 H         1 UNK         0.0807 
    121 H121      -81.0110   20.7158  -78.8451 H         1 UNK         0.0807 
    122 H122      -82.0995   22.7126  -76.0979 H         1 UNK         0.2946 
    123 H123      -82.4071   24.7316  -74.8398 H         1 UNK         0.1144 
    124 H124      -81.9535   22.6827  -73.4366 H         1 UNK         0.0793 
    125 H125      -82.0916   24.0985  -72.4112 H         1 UNK         0.0793 
    126 H126      -80.5027   23.4345  -72.7825 H         1 UNK         0.0793 
    127 H127      -79.8265   25.9206  -74.4100 H         1 UNK         0.2896 
@<TRIPOS>BOND
     1    1    2 1    
     2    1   67 1    
     3    1   68 1    
     4    1   69 1    
     5    2    3 2    
     6    2    4 am   BACKBONE|DICT|INTERRES
     7    4    5 1    
     8    4   70 1    
     9    5    6 1    
    10    5   65 1    
    11    5   71 1    
    12    6    7 1    
    13    6   72 1    
    14    6   73 1    
    15    7    8 1    
    16    8    9 1    
    17    8   74 1    
    18    8   75 1    
    19    9   10 ar   
    20    9   14 ar   
    21   10   11 ar   
    22   10   76 1    
    23   11   12 ar   
    24   11   48 1    
    25   12   13 ar   
    26   12   77 1    
    27   13   14 ar   
    28   13   15 1    
    29   14   78 1    
    30   15   16 1    
    31   15   79 1    
    32   15   80 1    
    33   16   17 1    
    34   17   18 1    
    35   17   81 1    
    36   17   82 1    
    37   18   19 1    
    38   18   22 1    
    39   18   83 1    
    40   19   20 am   BACKBONE|DICT|INTERRES
    41   19   21 2    
    42   20   84 1    
    43   20   85 1    
    44   22   23 am   BACKBONE|DICT|INTERRES
    45   22   86 1    
    46   23   24 2    
    47   23   25 1    
    48   25   26 1    
    49   25   27 1    
    50   25   87 1    
    51   26   88 1    
    52   26   89 1    
    53   26   90 1    
    54   27   28 am   BACKBONE|DICT|INTERRES
    55   27   91 1    
    56   28   29 2    
    57   28   30 1    
    58   30   31 1    
    59   30   32 1    
    60   30   92 1    
    61   31   93 1    
    62   31   94 1    
    63   31   95 1    
    64   32   33 am   BACKBONE|DICT|INTERRES
    65   32   96 1    
    66   33   34 2    
    67   33   35 1    
    68   35   36 1    
    69   35   37 1    
    70   35   97 1    
    71   36   98 1    
    72   36   99 1    
    73   36  100 1    
    74   37   38 am   BACKBONE|DICT|INTERRES
    75   37  101 1    
    76   38   39 2    
    77   38   40 1    
    78   40   41 1    
    79   40   42 1    
    80   40  102 1    
    81   41  103 1    
    82   41  104 1    
    83   41  105 1    
    84   42   43 am   BACKBONE|DICT|INTERRES
    85   42  106 1    
    86   43   44 2    
    87   43   45 1    
    88   45   46 1    
    89   45   49 1    
    90   45  107 1    
    91   46   47 1    
    92   46  108 1    
    93   46  109 1    
    94   47   48 1    
    95   48  110 1    
    96   48  111 1    
    97   49   50 am   BACKBONE|DICT|INTERRES
    98   49  112 1    
    99   50   51 2    
   100   50   52 1    
   101   52   53 1    
   102   52   54 1    
   103   52  113 1    
   104   53  114 1    
   105   53  115 1    
   106   53  116 1    
   107   54   55 am   BACKBONE|DICT|INTERRES
   108   54  117 1    
   109   55   56 2    
   110   55   57 1    
   111   57   58 1    
   112   57   59 1    
   113   57  118 1    
   114   58  119 1    
   115   58  120 1    
   116   58  121 1    
   117   59   60 am   BACKBONE|DICT|INTERRES
   118   59  122 1    
   119   60   61 2    
   120   60   62 1    
   121   62   63 1    
   122   62   64 1    
   123   62  123 1    
   124   63  124 1    
   125   63  125 1    
   126   63  126 1    
   127   64   65 am   BACKBONE|DICT|INTERRES
   128   64  127 1    
   129   65   66 2    
@<TRIPOS>SUBSTRUCTURE
     1 UNK         1 GROUP             0       ****    0 ROOT    
