@<TRIPOS>MOLECULE
3R135
127   129    1
SMALL
USER_CHARGES


@<TRIPOS>ATOM
      1 CA        -82.9315   28.9109  -75.1732 C.3       0 UNK        -0.1998 
      2 C         -81.5709   28.2605  -75.3668 C.2       0 UNK         0.4909 
      3 O         -81.3289   27.1816  -74.8289 O.2       0 UNK        -0.5240 
      4 N         -80.6901   28.8938  -76.1546 N.am      1 UNK        -0.4739 
      5 CA        -79.2872   28.5135  -76.4174 C.3       1 UNK         0.0864 
      6 C6        -78.3961   28.5080  -75.1436 C.3       11 UNK        -0.0881 
      7 S7        -78.4716   30.0848  -74.2249 S.3       11 UNK        -0.2682 
      8 C8        -79.1390   29.5479  -72.6199 C.3       11 UNK         0.0289 
      9 C9        -78.0416   29.0511  -71.6891 C.ar      11 UNK        -0.0687 
     10 C10       -77.7182   27.6922  -71.6301 C.ar      11 UNK        -0.0823 
     11 C11       -76.7331   27.2342  -70.7479 C.ar      11 UNK        -0.0830 
     12 C12       -76.0720   28.1472  -69.9194 C.ar      11 UNK        -0.1021 
     13 C13       -76.3930   29.5078  -69.9626 C.ar      11 UNK        -0.0753 
     14 C14       -77.3747   29.9524  -70.8537 C.ar      11 UNK        -0.0933 
     15 C15       -75.7362   30.4889  -68.9997 C.3       11 UNK         0.0166 
     16 S16       -74.7121   31.7364  -69.8426 S.3       11 UNK        -0.2615 
     17 C17       -73.1565   30.8240  -70.1275 C.3       11 UNK        -0.0865 
     18 CA        -72.5360   31.1440  -71.5187 C.3       10 UNK         0.0862 
     19 C         -71.0688   30.6293  -71.6626 C.2       10 UNK         0.5551 
     20 N         -70.6283   30.1800  -72.8328 N.am      10 UNK        -0.7319 
     21 O         -70.2989   30.6746  -70.7058 O.2       10 UNK        -0.5018 
     22 N         -73.4282   30.7914  -72.6362 N.am      10 UNK        -0.4509 
     23 C         -73.8033   29.5528  -72.9797 C.2       10 UNK         0.4899 
     24 O         -73.4646   28.5406  -72.3676 O.2       10 UNK        -0.4839 
     25 CA        -74.6666   29.4033  -74.2482 C.3       9 UNK         0.0222 
     26 CB        -75.0587   30.7423  -74.9148 C.3       9 UNK        -0.1966 
     27 N         -74.0327   28.5198  -75.2339 N.am      9 UNK        -0.4218 
     28 C         -72.7970   28.6450  -75.7490 C.2       9 UNK         0.5020 
     29 O         -72.0184   29.5586  -75.4675 O.2       9 UNK        -0.5274 
     30 CA        -72.3508   27.5776  -76.7578 C.3       8 UNK         0.0270 
     31 CB        -71.7644   26.3589  -76.0257 C.3       8 UNK        -0.1976 
     32 N         -73.4673   27.1479  -77.5998 N.am      8 UNK        -0.4313 
     33 C         -73.6727   27.5204  -78.8689 C.2       8 UNK         0.5041 
     34 O         -72.9046   28.2545  -79.4936 O.2       8 UNK        -0.5577 
     35 CA        -74.9590   27.0174  -79.5601 C.3       7 UNK         0.0284 
     36 CB        -74.7157   26.6132  -81.0299 C.3       7 UNK        -0.1958 
     37 N         -75.6658   25.9566  -78.8297 N.am      7 UNK        -0.4454 
     38 C         -75.2520   24.7070  -78.5776 C.2       7 UNK         0.5089 
     39 O         -74.1832   24.2298  -78.9622 O.2       7 UNK        -0.5125 
     40 CA        -76.1905   23.8646  -77.6971 C.3       6 UNK         0.0408 
     41 CB        -76.3514   22.4396  -78.2520 C.3       6 UNK        -0.1791 
     42 N         -75.7712   23.7860  -76.2948 N.am      6 UNK        -0.4762 
     43 C         -75.4476   24.7980  -75.4742 C.2       6 UNK         0.5007 
     44 O         -75.3437   25.9747  -75.8301 O.2       6 UNK        -0.5032 
     45 CA        -75.2492   24.4324  -73.9887 C.3       5 UNK         0.0783 
     46 C46       -75.0189   25.6904  -73.1137 C.3       11 UNK        -0.0857 
     47 S47       -74.7866   25.3187  -71.3432 S.3       11 UNK        -0.2512 
     48 C48       -76.4194   25.7459  -70.6550 C.3       11 UNK         0.0225 
     49 N         -76.3999   23.6545  -73.5277 N.am      5 UNK        -0.4615 
     50 C         -76.5199   22.3261  -73.5602 C.2       4 UNK         0.5053 
     51 O         -75.6512   21.5773  -74.0069 O.2       4 UNK        -0.5105 
     52 CA        -77.8428   21.7353  -73.0434 C.3       4 UNK         0.0263 
     53 CB        -77.9995   21.9415  -71.5235 C.3       4 UNK        -0.1981 
     54 N         -79.0378   22.1876  -73.7721 N.am      4 UNK        -0.4224 
     55 C         -79.5426   23.4255  -73.8852 C.2       3 UNK         0.4895 
     56 O         -79.0416   24.4370  -73.3866 O.2       3 UNK        -0.5091 
     57 CA        -80.8580   23.5442  -74.6642 C.3       3 UNK         0.0250 
     58 CB        -81.9893   24.0374  -73.7465 C.3       3 UNK        -0.1996 
     59 N         -80.7075   24.4639  -75.7901 N.am      3 UNK        -0.4254 
     60 C         -80.2457   24.1051  -76.9983 C.2       2 UNK         0.5004 
     61 O         -79.8661   22.9650  -77.2667 O.2       2 UNK        -0.5226 
     62 CA        -80.2267   25.1712  -78.1104 C.3       2 UNK         0.0269 
     63 CB        -81.4494   25.0059  -79.0275 C.3       2 UNK        -0.1926 
     64 N         -80.2175   26.5315  -77.5744 N.am      2 UNK        -0.4687 
     65 C         -79.1145   27.1918  -77.2026 C.2       1 UNK         0.5165 
     66 O         -77.9799   26.7951  -77.4677 O.2       1 UNK        -0.5079 
     67 H67       -83.7200   28.2413  -75.5153 H         1 UNK         0.0900 
     68 H68       -83.0181   29.8482  -75.7225 H         1 UNK         0.0900 
     69 H69       -83.0967   29.1204  -74.1167 H         1 UNK         0.0900 
     70 H70       -80.9714   29.7645  -76.5845 H         1 UNK         0.2959 
     71 H71       -78.8955   29.2862  -77.0809 H         1 UNK         0.1079 
     72 H72       -78.6722   27.6787  -74.4908 H         1 UNK         0.0837 
     73 H73       -77.3522   28.3364  -75.4121 H         1 UNK         0.0837 
     74 H74       -79.6532   30.3927  -72.1594 H         1 UNK         0.0685 
     75 H75       -79.8992   28.7789  -72.7660 H         1 UNK         0.0685 
     76 H76       -78.2440   26.9877  -72.2609 H         1 UNK         0.1434 
     77 H77       -75.3200   27.7913  -69.2285 H         1 UNK         0.1329 
     78 H78       -77.6307   31.0028  -70.8843 H         1 UNK         0.1335 
     79 H79       -76.5201   31.0057  -68.4443 H         1 UNK         0.0680 
     80 H80       -75.1334   29.9671  -68.2547 H         1 UNK         0.0680 
     81 H81       -73.3252   29.7513  -70.0216 H         1 UNK         0.1032 
     82 H82       -72.4712   31.1008  -69.3245 H         1 UNK         0.1032 
     83 H83       -72.4351   32.2283  -71.5765 H         1 UNK         0.0461 
     84 H84       -69.6742   29.8670  -72.9101 H         1 UNK         0.3453 
     85 H85       -71.2450   30.1162  -73.6353 H         1 UNK         0.3453 
     86 H86       -73.7292   31.5612  -73.2148 H         1 UNK         0.2984 
     87 H87       -75.5820   28.9067  -73.9255 H         1 UNK         0.0554 
     88 H88       -75.7134   30.5721  -75.7696 H         1 UNK         0.0847 
     89 H89       -74.1913   31.2971  -75.2741 H         1 UNK         0.0847 
     90 H90       -75.6071   31.3828  -74.2226 H         1 UNK         0.0847 
     91 H91       -74.5714   27.6965  -75.4875 H         1 UNK         0.3141 
     92 H92       -71.5605   28.0119  -77.3738 H         1 UNK         0.0743 
     93 H93       -72.4956   25.8842  -75.3713 H         1 UNK         0.0784 
     94 H94       -71.4105   25.6075  -76.7318 H         1 UNK         0.0784 
     95 H95       -70.9142   26.6495  -75.4069 H         1 UNK         0.0784 
     96 H96       -74.1805   26.5772  -77.1522 H         1 UNK         0.3213 
     97 H97       -75.6400   27.8698  -79.5646 H         1 UNK         0.0855 
     98 H98       -74.3401   27.4565  -81.6107 H         1 UNK         0.0814 
     99 H99       -75.6365   26.2786  -81.5075 H         1 UNK         0.0814 
    100 H100      -73.9816   25.8115  -81.1143 H         1 UNK         0.0814 
    101 H101      -76.5300   26.2541  -78.3727 H         1 UNK         0.3105 
    102 H102      -77.1780   24.3255  -77.7066 H         1 UNK         0.0547 
    103 H103      -76.6607   22.4612  -79.2978 H         1 UNK         0.0837 
    104 H104      -75.4188   21.8765  -78.1989 H         1 UNK         0.0837 
    105 H105      -77.1130   21.8843  -77.7038 H         1 UNK         0.0837 
    106 H106      -75.7932   22.8620  -75.8829 H         1 UNK         0.3020 
    107 H107      -74.3487   23.8167  -73.9292 H         1 UNK         0.1245 
    108 H108      -75.8354   26.4027  -73.2359 H         1 UNK         0.0781 
    109 H109      -74.1188   26.2090  -73.4454 H         1 UNK         0.0781 
    110 H110      -76.4486   25.4400  -69.6083 H         1 UNK         0.0836 
    111 H111      -77.1868   25.1604  -71.1615 H         1 UNK         0.0836 
    112 H112      -77.2298   24.1824  -73.2671 H         1 UNK         0.3022 
    113 H113      -77.7837   20.6591  -73.2148 H         1 UNK         0.0747 
    114 H114      -78.8525   21.3835  -71.1375 H         1 UNK         0.0793 
    115 H115      -77.1155   21.5920  -70.9881 H         1 UNK         0.0793 
    116 H116      -78.1443   22.9889  -71.2610 H         1 UNK         0.0793 
    117 H117      -79.5276   21.4500  -74.2603 H         1 UNK         0.3047 
    118 H118      -81.1464   22.5612  -75.0438 H         1 UNK         0.0822 
    119 H119      -82.9301   24.1291  -74.2894 H         1 UNK         0.0807 
    120 H120      -81.7606   25.0097  -73.3079 H         1 UNK         0.0807 
    121 H121      -82.1545   23.3411  -72.9233 H         1 UNK         0.0807 
    122 H122      -80.9268   25.4384  -75.6001 H         1 UNK         0.2946 
    123 H123      -79.3287   25.0074  -78.7104 H         1 UNK         0.1144 
    124 H124      -81.4763   24.0069  -79.4653 H         1 UNK         0.0793 
    125 H125      -81.4256   25.7187  -79.8519 H         1 UNK         0.0793 
    126 H126      -82.3849   25.1496  -78.4852 H         1 UNK         0.0793 
    127 H127      -81.1095   26.9327  -77.3231 H         1 UNK         0.2896 
@<TRIPOS>BOND
     1    1    2 1    
     2    1   67 1    
     3    1   68 1    
     4    1   69 1    
     5    2    3 2    
     6    2    4 am   BACKBONE|DICT|INTERRES
     7    4    5 1    
     8    4   70 1    
     9    5    6 1    
    10    5   65 1    
    11    5   71 1    
    12    6    7 1    
    13    6   72 1    
    14    6   73 1    
    15    7    8 1    
    16    8    9 1    
    17    8   74 1    
    18    8   75 1    
    19    9   10 ar   
    20    9   14 ar   
    21   10   11 ar   
    22   10   76 1    
    23   11   12 ar   
    24   11   48 1    
    25   12   13 ar   
    26   12   77 1    
    27   13   14 ar   
    28   13   15 1    
    29   14   78 1    
    30   15   16 1    
    31   15   79 1    
    32   15   80 1    
    33   16   17 1    
    34   17   18 1    
    35   17   81 1    
    36   17   82 1    
    37   18   19 1    
    38   18   22 1    
    39   18   83 1    
    40   19   20 am   BACKBONE|DICT|INTERRES
    41   19   21 2    
    42   20   84 1    
    43   20   85 1    
    44   22   23 am   BACKBONE|DICT|INTERRES
    45   22   86 1    
    46   23   24 2    
    47   23   25 1    
    48   25   26 1    
    49   25   27 1    
    50   25   87 1    
    51   26   88 1    
    52   26   89 1    
    53   26   90 1    
    54   27   28 am   BACKBONE|DICT|INTERRES
    55   27   91 1    
    56   28   29 2    
    57   28   30 1    
    58   30   31 1    
    59   30   32 1    
    60   30   92 1    
    61   31   93 1    
    62   31   94 1    
    63   31   95 1    
    64   32   33 am   BACKBONE|DICT|INTERRES
    65   32   96 1    
    66   33   34 2    
    67   33   35 1    
    68   35   36 1    
    69   35   37 1    
    70   35   97 1    
    71   36   98 1    
    72   36   99 1    
    73   36  100 1    
    74   37   38 am   BACKBONE|DICT|INTERRES
    75   37  101 1    
    76   38   39 2    
    77   38   40 1    
    78   40   41 1    
    79   40   42 1    
    80   40  102 1    
    81   41  103 1    
    82   41  104 1    
    83   41  105 1    
    84   42   43 am   BACKBONE|DICT|INTERRES
    85   42  106 1    
    86   43   44 2    
    87   43   45 1    
    88   45   46 1    
    89   45   49 1    
    90   45  107 1    
    91   46   47 1    
    92   46  108 1    
    93   46  109 1    
    94   47   48 1    
    95   48  110 1    
    96   48  111 1    
    97   49   50 am   BACKBONE|DICT|INTERRES
    98   49  112 1    
    99   50   51 2    
   100   50   52 1    
   101   52   53 1    
   102   52   54 1    
   103   52  113 1    
   104   53  114 1    
   105   53  115 1    
   106   53  116 1    
   107   54   55 am   BACKBONE|DICT|INTERRES
   108   54  117 1    
   109   55   56 2    
   110   55   57 1    
   111   57   58 1    
   112   57   59 1    
   113   57  118 1    
   114   58  119 1    
   115   58  120 1    
   116   58  121 1    
   117   59   60 am   BACKBONE|DICT|INTERRES
   118   59  122 1    
   119   60   61 2    
   120   60   62 1    
   121   62   63 1    
   122   62   64 1    
   123   62  123 1    
   124   63  124 1    
   125   63  125 1    
   126   63  126 1    
   127   64   65 am   BACKBONE|DICT|INTERRES
   128   64  127 1    
   129   65   66 2    
@<TRIPOS>SUBSTRUCTURE
     1 UNK         1 GROUP             0       ****    0 ROOT    
