@<TRIPOS>MOLECULE
3R135
127   129    1
SMALL
USER_CHARGES


@<TRIPOS>ATOM
      1 CA        -79.5607   28.4049  -70.7704 C.3       0 UNK        -0.1998 
      2 C         -80.4633   28.4130  -71.9937 C.2       0 UNK         0.4909 
      3 O         -81.6845   28.4888  -71.8568 O.2       0 UNK        -0.5240 
      4 N         -79.8700   28.3231  -73.1905 N.am      1 UNK        -0.4739 
      5 CA        -80.5755   28.3022  -74.4806 C.3       1 UNK         0.0864 
      6 C6        -79.6166   28.6191  -75.6566 C.3       11 UNK        -0.0881 
      7 S7        -79.0663   30.3572  -75.6434 S.3       11 UNK        -0.2682 
      8 C8        -77.2664   30.1962  -75.4345 C.3       11 UNK         0.0289 
      9 C9        -76.8872   29.8094  -74.0138 C.ar      11 UNK        -0.0687 
     10 C10       -76.3213   28.5597  -73.7491 C.ar      11 UNK        -0.0823 
     11 C11       -75.9177   28.2233  -72.4540 C.ar      11 UNK        -0.0830 
     12 C12       -76.0962   29.1433  -71.4175 C.ar      11 UNK        -0.1021 
     13 C13       -76.6479   30.4023  -71.6728 C.ar      11 UNK        -0.0753 
     14 C14       -77.0452   30.7276  -72.9722 C.ar      11 UNK        -0.0933 
     15 C15       -76.8084   31.4187  -70.5523 C.3       11 UNK         0.0166 
     16 S16       -75.4189   32.5986  -70.5025 S.3       11 UNK        -0.2615 
     17 C17       -74.0636   31.5550  -69.8572 C.3       11 UNK        -0.0865 
     18 CA        -72.8826   31.3522  -70.8468 C.3       10 UNK         0.0862 
     19 C         -71.8177   30.4103  -70.2092 C.2       10 UNK         0.5551 
     20 N         -71.6284   29.1919  -70.7014 N.am      10 UNK        -0.7319 
     21 O         -71.1574   30.7952  -69.2474 O.2       10 UNK        -0.5018 
     22 N         -73.3380   30.9749  -72.1976 N.am      10 UNK        -0.4509 
     23 C         -72.5655   30.9386  -73.2902 C.2       10 UNK         0.4899 
     24 O         -71.3580   31.1858  -73.3003 O.2       10 UNK        -0.4839 
     25 CA        -73.2579   30.5728  -74.6035 C.3       9 UNK         0.0222 
     26 CB        -73.4414   31.8015  -75.5102 C.3       9 UNK        -0.1966 
     27 N         -72.4645   29.5496  -75.2772 N.am      9 UNK        -0.4218 
     28 C         -72.9712   28.5708  -76.0346 C.2       9 UNK         0.5020 
     29 O         -74.1621   28.5039  -76.3493 O.2       9 UNK        -0.5274 
     30 CA        -71.9851   27.4898  -76.5135 C.3       8 UNK         0.0270 
     31 CB        -71.1699   26.8939  -75.3488 C.3       8 UNK        -0.1976 
     32 N         -72.7364   26.4129  -77.1525 N.am      8 UNK        -0.4313 
     33 C         -72.4598   25.8296  -78.3247 C.2       8 UNK         0.5041 
     34 O         -71.4552   26.0799  -78.9927 O.2       8 UNK        -0.5577 
     35 CA        -73.4702   24.7867  -78.8522 C.3       7 UNK         0.0284 
     36 CB        -72.9608   23.3610  -78.5848 C.3       7 UNK        -0.1958 
     37 N         -74.8061   24.9306  -78.2668 N.am      7 UNK        -0.4454 
     38 C         -75.6282   25.9646  -78.4857 C.2       7 UNK         0.5089 
     39 O         -75.4360   26.8032  -79.3672 O.2       7 UNK        -0.5125 
     40 CA        -76.8574   26.1182  -77.5653 C.3       6 UNK         0.0408 
     41 CB        -78.1572   25.9322  -78.3661 C.3       6 UNK        -0.1791 
     42 N         -76.9210   25.2567  -76.3757 N.am      6 UNK        -0.4762 
     43 C         -76.0161   25.1288  -75.3927 C.2       6 UNK         0.5007 
     44 O         -74.8892   25.6174  -75.4252 O.2       6 UNK        -0.5032 
     45 CA        -76.4506   24.3114  -74.1635 C.3       5 UNK         0.0783 
     46 C46       -77.2874   25.1846  -73.1819 C.3       11 UNK        -0.0857 
     47 S47       -76.3962   25.5982  -71.6467 S.3       11 UNK        -0.2512 
     48 C48       -75.2327   26.8934  -72.1796 C.3       11 UNK         0.0225 
     49 N         -77.1760   23.1098  -74.5822 N.am      5 UNK        -0.4615 
     50 C         -76.6040   21.9559  -74.9493 C.2       4 UNK         0.5053 
     51 O         -75.3871   21.7703  -74.9520 O.2       4 UNK        -0.5105 
     52 CA        -77.5380   20.8047  -75.3690 C.3       4 UNK         0.0263 
     53 CB        -77.7379   19.8284  -74.1983 C.3       4 UNK        -0.1981 
     54 N         -78.8488   21.2653  -75.8354 N.am      4 UNK        -0.4224 
     55 C         -79.0796   21.7923  -77.0459 C.2       3 UNK         0.4895 
     56 O         -78.2269   21.8822  -77.9293 O.2       3 UNK        -0.5091 
     57 CA        -80.4950   22.3454  -77.3043 C.3       3 UNK         0.0250 
     58 CB        -81.4066   21.2448  -77.8705 C.3       3 UNK        -0.1996 
     59 N         -81.1404   22.9629  -76.1349 N.am      3 UNK        -0.4254 
     60 C         -80.6262   23.9805  -75.4312 C.2       2 UNK         0.5004 
     61 O         -79.5010   24.4420  -75.6308 O.2       2 UNK        -0.5226 
     62 CA        -81.4747   24.5521  -74.2841 C.3       2 UNK         0.0269 
     63 CB        -81.3299   23.6887  -73.0202 C.3       2 UNK        -0.1926 
     64 N         -81.0475   25.9212  -73.9816 N.am      2 UNK        -0.4687 
     65 C         -81.3290   26.9804  -74.7542 C.2       1 UNK         0.5165 
     66 O         -82.1390   26.9371  -75.6823 O.2       1 UNK        -0.5079 
     67 H67       -80.0445   27.8855  -69.9436 H         1 UNK         0.0900 
     68 H68       -78.6180   27.8983  -70.9747 H         1 UNK         0.0900 
     69 H69       -79.3447   29.4250  -70.4547 H         1 UNK         0.0900 
     70 H70       -78.8606   28.3284  -73.2428 H         1 UNK         0.2959 
     71 H71       -81.3436   29.0786  -74.4514 H         1 UNK         0.1079 
     72 H72       -80.1100   28.4607  -76.6180 H         1 UNK         0.0837 
     73 H73       -78.7586   27.9444  -75.6478 H         1 UNK         0.0837 
     74 H74       -76.8745   29.4793  -76.1580 H         1 UNK         0.0685 
     75 H75       -76.7989   31.1520  -75.6750 H         1 UNK         0.0685 
     76 H76       -76.1564   27.8677  -74.5626 H         1 UNK         0.1434 
     77 H77       -75.7887   28.8813  -70.4145 H         1 UNK         0.1329 
     78 H78       -77.4671   31.7022  -73.1775 H         1 UNK         0.1335 
     79 H79       -77.7356   31.9755  -70.6969 H         1 UNK         0.0680 
     80 H80       -76.9045   30.9188  -69.5870 H         1 UNK         0.0680 
     81 H81       -73.6992   32.0289  -68.9435 H         1 UNK         0.1032 
     82 H82       -74.4642   30.5922  -69.5389 H         1 UNK         0.1032 
     83 H83       -72.3916   32.3208  -70.9589 H         1 UNK         0.0461 
     84 H84       -72.1602   28.8762  -71.4952 H         1 UNK         0.3453 
     85 H85       -70.9361   28.5916  -70.2824 H         1 UNK         0.3453 
     86 H86       -74.3235   30.7629  -72.2806 H         1 UNK         0.2984 
     87 H87       -74.2387   30.1671  -74.3667 H         1 UNK         0.0554 
     88 H88       -73.9712   31.5402  -76.4264 H         1 UNK         0.0847 
     89 H89       -72.4842   32.2433  -75.7895 H         1 UNK         0.0847 
     90 H90       -74.0257   32.5728  -75.0067 H         1 UNK         0.0847 
     91 H91       -71.4801   29.5493  -75.0429 H         1 UNK         0.3141 
     92 H92       -71.3086   27.9566  -77.2321 H         1 UNK         0.0743 
     93 H93       -71.8201   26.4947  -74.5688 H         1 UNK         0.0784 
     94 H94       -70.5288   26.0820  -75.6931 H         1 UNK         0.0784 
     95 H95       -70.5190   27.6378  -74.8887 H         1 UNK         0.0784 
     96 H96       -73.6119   26.1840  -76.6825 H         1 UNK         0.3213 
     97 H97       -73.5539   24.9276  -79.9320 H         1 UNK         0.0855 
     98 H98       -72.8702   23.1587  -77.5166 H         1 UNK         0.0814 
     99 H99       -71.9765   23.2089  -79.0301 H         1 UNK         0.0814 
    100 H100      -73.6281   22.6133  -79.0138 H         1 UNK         0.0814 
    101 H101      -75.0458   24.3007  -77.5147 H         1 UNK         0.3105 
    102 H102      -76.8319   27.1465  -77.2002 H         1 UNK         0.0547 
    103 H103      -78.1773   26.5777  -79.2452 H         1 UNK         0.0837 
    104 H104      -78.2689   24.9036  -78.7114 H         1 UNK         0.0837 
    105 H105      -79.0334   26.1804  -77.7668 H         1 UNK         0.0837 
    106 H106      -77.8300   24.8259  -76.2113 H         1 UNK         0.3020 
    107 H107      -75.5354   23.9882  -73.6612 H         1 UNK         0.1245 
    108 H108      -78.1779   24.6426  -72.8638 H         1 UNK         0.0781 
    109 H109      -77.6754   26.0958  -73.6401 H         1 UNK         0.0781 
    110 H110      -74.6708   26.5629  -73.0522 H         1 UNK         0.0836 
    111 H111      -74.4897   27.0274  -71.3919 H         1 UNK         0.0836 
    112 H112      -78.1747   23.2194  -74.7051 H         1 UNK         0.3022 
    113 H113      -77.0482   20.2646  -76.1824 H         1 UNK         0.0747 
    114 H114      -78.3415   18.9705  -74.4955 H         1 UNK         0.0793 
    115 H115      -76.7808   19.4416  -73.8452 H         1 UNK         0.0793 
    116 H116      -78.2281   20.3079  -73.3500 H         1 UNK         0.0793 
    117 H117      -79.6137   21.2182  -75.1780 H         1 UNK         0.3047 
    118 H118      -80.3957   23.1257  -78.0620 H         1 UNK         0.0822 
    119 H119      -82.3741   21.6462  -78.1728 H         1 UNK         0.0807 
    120 H120      -81.5834   20.4515  -77.1431 H         1 UNK         0.0807 
    121 H121      -80.9607   20.7839  -78.7533 H         1 UNK         0.0807 
    122 H122      -82.0616   22.6226  -75.8979 H         1 UNK         0.2946 
    123 H123      -82.5228   24.5648  -74.5923 H         1 UNK         0.1144 
    124 H124      -81.6907   22.6743  -73.1945 H         1 UNK         0.0793 
    125 H125      -81.9120   24.0979  -72.1941 H         1 UNK         0.0793 
    126 H126      -80.2934   23.6122  -72.6918 H         1 UNK         0.0793 
    127 H127      -80.3628   26.0386  -73.2507 H         1 UNK         0.2896 
@<TRIPOS>BOND
     1    1    2 1    
     2    1   67 1    
     3    1   68 1    
     4    1   69 1    
     5    2    3 2    
     6    2    4 am   BACKBONE|DICT|INTERRES
     7    4    5 1    
     8    4   70 1    
     9    5    6 1    
    10    5   65 1    
    11    5   71 1    
    12    6    7 1    
    13    6   72 1    
    14    6   73 1    
    15    7    8 1    
    16    8    9 1    
    17    8   74 1    
    18    8   75 1    
    19    9   10 ar   
    20    9   14 ar   
    21   10   11 ar   
    22   10   76 1    
    23   11   12 ar   
    24   11   48 1    
    25   12   13 ar   
    26   12   77 1    
    27   13   14 ar   
    28   13   15 1    
    29   14   78 1    
    30   15   16 1    
    31   15   79 1    
    32   15   80 1    
    33   16   17 1    
    34   17   18 1    
    35   17   81 1    
    36   17   82 1    
    37   18   19 1    
    38   18   22 1    
    39   18   83 1    
    40   19   20 am   BACKBONE|DICT|INTERRES
    41   19   21 2    
    42   20   84 1    
    43   20   85 1    
    44   22   23 am   BACKBONE|DICT|INTERRES
    45   22   86 1    
    46   23   24 2    
    47   23   25 1    
    48   25   26 1    
    49   25   27 1    
    50   25   87 1    
    51   26   88 1    
    52   26   89 1    
    53   26   90 1    
    54   27   28 am   BACKBONE|DICT|INTERRES
    55   27   91 1    
    56   28   29 2    
    57   28   30 1    
    58   30   31 1    
    59   30   32 1    
    60   30   92 1    
    61   31   93 1    
    62   31   94 1    
    63   31   95 1    
    64   32   33 am   BACKBONE|DICT|INTERRES
    65   32   96 1    
    66   33   34 2    
    67   33   35 1    
    68   35   36 1    
    69   35   37 1    
    70   35   97 1    
    71   36   98 1    
    72   36   99 1    
    73   36  100 1    
    74   37   38 am   BACKBONE|DICT|INTERRES
    75   37  101 1    
    76   38   39 2    
    77   38   40 1    
    78   40   41 1    
    79   40   42 1    
    80   40  102 1    
    81   41  103 1    
    82   41  104 1    
    83   41  105 1    
    84   42   43 am   BACKBONE|DICT|INTERRES
    85   42  106 1    
    86   43   44 2    
    87   43   45 1    
    88   45   46 1    
    89   45   49 1    
    90   45  107 1    
    91   46   47 1    
    92   46  108 1    
    93   46  109 1    
    94   47   48 1    
    95   48  110 1    
    96   48  111 1    
    97   49   50 am   BACKBONE|DICT|INTERRES
    98   49  112 1    
    99   50   51 2    
   100   50   52 1    
   101   52   53 1    
   102   52   54 1    
   103   52  113 1    
   104   53  114 1    
   105   53  115 1    
   106   53  116 1    
   107   54   55 am   BACKBONE|DICT|INTERRES
   108   54  117 1    
   109   55   56 2    
   110   55   57 1    
   111   57   58 1    
   112   57   59 1    
   113   57  118 1    
   114   58  119 1    
   115   58  120 1    
   116   58  121 1    
   117   59   60 am   BACKBONE|DICT|INTERRES
   118   59  122 1    
   119   60   61 2    
   120   60   62 1    
   121   62   63 1    
   122   62   64 1    
   123   62  123 1    
   124   63  124 1    
   125   63  125 1    
   126   63  126 1    
   127   64   65 am   BACKBONE|DICT|INTERRES
   128   64  127 1    
   129   65   66 2    
@<TRIPOS>SUBSTRUCTURE
     1 UNK         1 GROUP             0       ****    0 ROOT    
