@<TRIPOS>MOLECULE
3R135
127   129    1
SMALL
USER_CHARGES


@<TRIPOS>ATOM
      1 CA        -80.9149   30.6432  -76.1438 C.3       0 UNK        -0.1998 
      2 C         -80.5761   29.5830  -75.1073 C.2       0 UNK         0.4909 
      3 O         -79.6522   28.7976  -75.3164 O.2       0 UNK        -0.5240 
      4 N         -81.3132   29.5572  -73.9901 N.am      1 UNK        -0.4739 
      5 CA        -81.1400   28.5969  -72.8967 C.3       1 UNK         0.0864 
      6 C6        -81.6688   29.1445  -71.5431 C.3       11 UNK        -0.0881 
      7 S7        -80.8942   30.7342  -71.0751 S.3       11 UNK        -0.2682 
      8 C8        -79.5465   30.2113  -69.9619 C.3       11 UNK         0.0289 
      9 C9        -78.5913   29.2353  -70.6349 C.ar      11 UNK        -0.0687 
     10 C10       -78.4800   27.9240  -70.1639 C.ar      11 UNK        -0.0823 
     11 C11       -77.6514   26.9970  -70.8037 C.ar      11 UNK        -0.0830 
     12 C12       -76.9369   27.4030  -71.9398 C.ar      11 UNK        -0.1021 
     13 C13       -77.0369   28.7118  -72.4209 C.ar      11 UNK        -0.0753 
     14 C14       -77.8493   29.6300  -71.7517 C.ar      11 UNK        -0.0933 
     15 C15       -76.3213   29.1150  -73.7022 C.3       11 UNK         0.0166 
     16 S16       -74.5210   28.8634  -73.6213 S.3       11 UNK        -0.2615 
     17 C17       -73.9940   30.2347  -72.5375 C.3       11 UNK        -0.0865 
     18 CA        -73.7609   31.5819  -73.2878 C.3       10 UNK         0.0862 
     19 C         -73.3285   32.7272  -72.3221 C.2       10 UNK         0.5551 
     20 N         -72.4821   33.6604  -72.7407 N.am      10 UNK        -0.7319 
     21 O         -73.7901   32.7923  -71.1853 O.2       10 UNK        -0.5018 
     22 N         -72.9377   31.4574  -74.5075 N.am      10 UNK        -0.4509 
     23 C         -71.6786   31.0086  -74.5769 C.2       10 UNK         0.4899 
     24 O         -71.0043   30.6605  -73.6054 O.2       10 UNK        -0.4839 
     25 CA        -71.0569   30.9563  -75.9836 C.3       9 UNK         0.0222 
     26 CB        -69.9371   32.0008  -76.1254 C.3       9 UNK        -0.1966 
     27 N         -70.5241   29.6242  -76.2773 N.am      9 UNK        -0.4218 
     28 C         -71.2804   28.5334  -76.4556 C.2       9 UNK         0.5020 
     29 O         -72.5147   28.5527  -76.4793 O.2       9 UNK        -0.5274 
     30 CA        -70.5399   27.2005  -76.6463 C.3       8 UNK         0.0270 
     31 CB        -69.6181   26.8714  -75.4558 C.3       8 UNK        -0.1976 
     32 N         -71.5424   26.1506  -76.7833 N.am      8 UNK        -0.4313 
     33 C         -71.4616   25.0436  -77.5269 C.2       8 UNK         0.5041 
     34 O         -70.4652   24.7335  -78.1819 O.2       8 UNK        -0.5577 
     35 CA        -72.6929   24.1151  -77.5371 C.3       7 UNK         0.0284 
     36 CB        -72.3552   22.7562  -76.9002 C.3       7 UNK        -0.1958 
     37 N         -73.8374   24.6889  -76.8240 N.am      7 UNK        -0.4454 
     38 C         -74.7492   25.5198  -77.3402 C.2       7 UNK         0.5089 
     39 O         -74.7626   25.8504  -78.5270 O.2       7 UNK        -0.5125 
     40 CA        -75.8029   26.0881  -76.3610 C.3       6 UNK         0.0408 
     41 CB        -76.9344   26.8333  -77.0923 C.3       6 UNK        -0.1791 
     42 N         -76.4074   25.0856  -75.4764 N.am      6 UNK        -0.4762 
     43 C         -75.8202   24.4412  -74.4572 C.2       6 UNK         0.5007 
     44 O         -74.6424   24.6082  -74.1376 O.2       6 UNK        -0.5032 
     45 CA        -76.6725   23.3979  -73.7078 C.3       5 UNK         0.0783 
     46 C46       -77.5055   24.0268  -72.5652 C.3       11 UNK        -0.0857 
     47 S47       -76.4986   24.3956  -71.0920 S.3       11 UNK        -0.2512 
     48 C48       -77.5788   25.5823  -70.2206 C.3       11 UNK         0.0225 
     49 N         -77.5312   22.6681  -74.6416 N.am      5 UNK        -0.4615 
     50 C         -77.1509   21.5984  -75.3520 C.2       4 UNK         0.5053 
     51 O         -76.0361   21.0833  -75.2671 O.2       4 UNK        -0.5105 
     52 CA        -78.1902   20.9833  -76.3073 C.3       4 UNK         0.0263 
     53 CB        -78.8963   19.7950  -75.6342 C.3       4 UNK        -0.1981 
     54 N         -79.1976   21.9473  -76.7575 N.am      4 UNK        -0.4224 
     55 C         -78.9754   22.9010  -77.6725 C.2       3 UNK         0.4895 
     56 O         -77.9168   23.0297  -78.2870 O.2       3 UNK        -0.5091 
     57 CA        -80.1211   23.8975  -77.9278 C.3       3 UNK         0.0250 
     58 CB        -81.0377   23.3861  -79.0510 C.3       3 UNK        -0.1996 
     59 N         -80.9303   24.2154  -76.7423 N.am      3 UNK        -0.4254 
     60 C         -80.4517   24.7733  -75.6223 C.2       2 UNK         0.5004 
     61 O         -79.2540   24.9835  -75.4201 O.2       2 UNK        -0.5226 
     62 CA        -81.4580   25.1268  -74.5254 C.3       2 UNK         0.0269 
     63 CB        -81.5280   24.0179  -73.4605 C.3       2 UNK        -0.1926 
     64 N         -81.0191   26.3816  -73.9246 N.am      2 UNK        -0.4687 
     65 C         -81.7983   27.2604  -73.2877 C.2       1 UNK         0.5165 
     66 O         -82.9945   27.0717  -73.0558 O.2       1 UNK        -0.5079 
     67 H67       -81.7451   31.2738  -75.8262 H         1 UNK         0.0900 
     68 H68       -80.0507   31.2830  -76.3202 H         1 UNK         0.0900 
     69 H69       -81.1879   30.1708  -77.0870 H         1 UNK         0.0900 
     70 H70       -82.0651   30.2206  -73.8704 H         1 UNK         0.2959 
     71 H71       -80.0737   28.4015  -72.7783 H         1 UNK         0.1079 
     72 H72       -81.5062   28.4172  -70.7455 H         1 UNK         0.0837 
     73 H73       -82.7476   29.3044  -71.5893 H         1 UNK         0.0837 
     74 H74       -79.9804   29.7768  -69.0599 H         1 UNK         0.0685 
     75 H75       -78.9894   31.0928  -69.6416 H         1 UNK         0.0685 
     76 H76       -79.0505   27.6182  -69.2971 H         1 UNK         0.1434 
     77 H77       -76.2977   26.7116  -72.4690 H         1 UNK         0.1329 
     78 H78       -77.9474   30.6397  -72.1266 H         1 UNK         0.1335 
     79 H79       -76.7209   28.5143  -74.5194 H         1 UNK         0.0680 
     80 H80       -76.5288   30.1541  -73.9613 H         1 UNK         0.0680 
     81 H81       -73.0784   29.9244  -72.0318 H         1 UNK         0.1032 
     82 H82       -74.7382   30.3586  -71.7486 H         1 UNK         0.1032 
     83 H83       -74.7367   31.9027  -73.6535 H         1 UNK         0.0461 
     84 H84       -72.2155   34.4038  -72.1145 H         1 UNK         0.3453 
     85 H85       -72.1048   33.6239  -73.6737 H         1 UNK         0.3453 
     86 H86       -73.4004   31.7201  -75.3657 H         1 UNK         0.2984 
     87 H87       -71.8265   31.1830  -76.7250 H         1 UNK         0.0554 
     88 H88       -70.3157   33.0062  -75.9367 H         1 UNK         0.0847 
     89 H89       -69.5160   31.9990  -77.1310 H         1 UNK         0.0847 
     90 H90       -69.1244   31.8222  -75.4200 H         1 UNK         0.0847 
     91 H91       -69.5202   29.5214  -76.2461 H         1 UNK         0.3141 
     92 H92       -69.9518   27.2694  -77.5638 H         1 UNK         0.0743 
     93 H93       -68.8132   27.6004  -75.3588 H         1 UNK         0.0784 
     94 H94       -70.1680   26.8620  -74.5136 H         1 UNK         0.0784 
     95 H95       -69.1496   25.8945  -75.5774 H         1 UNK         0.0784 
     96 H96       -72.4320   26.3832  -76.3594 H         1 UNK         0.3213 
     97 H97       -72.9678   23.9470  -78.5806 H         1 UNK         0.0855 
     98 H98       -72.0552   22.8635  -75.8570 H         1 UNK         0.0814 
     99 H99       -71.5340   22.2693  -77.4281 H         1 UNK         0.0814 
    100 H100      -73.2089   22.0787  -76.9352 H         1 UNK         0.0814 
    101 H101      -73.9074   24.4959  -75.8268 H         1 UNK         0.3105 
    102 H102      -75.2818   26.8117  -75.7325 H         1 UNK         0.0547 
    103 H103      -77.6596   27.2462  -76.3912 H         1 UNK         0.0837 
    104 H104      -77.4717   26.1726  -77.7736 H         1 UNK         0.0837 
    105 H105      -76.5433   27.6654  -77.6789 H         1 UNK         0.0837 
    106 H106      -77.3975   24.9086  -75.6306 H         1 UNK         0.3020 
    107 H107      -75.9786   22.6810  -73.2614 H         1 UNK         0.1245 
    108 H108      -78.2786   23.3276  -72.2430 H         1 UNK         0.0781 
    109 H109      -78.0331   24.9208  -72.9036 H         1 UNK         0.0781 
    110 H110      -77.2245   25.6562  -69.1915 H         1 UNK         0.0836 
    111 H111      -78.5851   25.1636  -70.1679 H         1 UNK         0.0836 
    112 H112      -78.4358   23.0805  -74.8259 H         1 UNK         0.3022 
    113 H113      -77.6526   20.6095  -77.1817 H         1 UNK         0.0747 
    114 H114      -79.5870   19.3034  -76.3196 H         1 UNK         0.0793 
    115 H115      -78.1735   19.0439  -75.3120 H         1 UNK         0.0793 
    116 H116      -79.4591   20.1044  -74.7525 H         1 UNK         0.0793 
    117 H117      -80.1048   21.9061  -76.3162 H         1 UNK         0.3047 
    118 H118      -79.6626   24.8302  -78.2638 H         1 UNK         0.0822 
    119 H119      -81.7863   24.1303  -79.3233 H         1 UNK         0.0807 
    120 H120      -81.5597   22.4726  -78.7634 H         1 UNK         0.0807 
    121 H121      -80.4641   23.1634  -79.9521 H         1 UNK         0.0807 
    122 H122      -81.9246   24.0543  -76.8216 H         1 UNK         0.2946 
    123 H123      -82.4428   25.2686  -74.9767 H         1 UNK         0.1144 
    124 H124      -81.8232   23.0659  -73.9033 H         1 UNK         0.0793 
    125 H125      -82.2603   24.2552  -72.6887 H         1 UNK         0.0793 
    126 H126      -80.5658   23.8686  -72.9707 H         1 UNK         0.0793 
    127 H127      -80.0680   26.6437  -74.1624 H         1 UNK         0.2896 
@<TRIPOS>BOND
     1    1    2 1    
     2    1   67 1    
     3    1   68 1    
     4    1   69 1    
     5    2    3 2    
     6    2    4 am   BACKBONE|DICT|INTERRES
     7    4    5 1    
     8    4   70 1    
     9    5    6 1    
    10    5   65 1    
    11    5   71 1    
    12    6    7 1    
    13    6   72 1    
    14    6   73 1    
    15    7    8 1    
    16    8    9 1    
    17    8   74 1    
    18    8   75 1    
    19    9   10 ar   
    20    9   14 ar   
    21   10   11 ar   
    22   10   76 1    
    23   11   12 ar   
    24   11   48 1    
    25   12   13 ar   
    26   12   77 1    
    27   13   14 ar   
    28   13   15 1    
    29   14   78 1    
    30   15   16 1    
    31   15   79 1    
    32   15   80 1    
    33   16   17 1    
    34   17   18 1    
    35   17   81 1    
    36   17   82 1    
    37   18   19 1    
    38   18   22 1    
    39   18   83 1    
    40   19   20 am   BACKBONE|DICT|INTERRES
    41   19   21 2    
    42   20   84 1    
    43   20   85 1    
    44   22   23 am   BACKBONE|DICT|INTERRES
    45   22   86 1    
    46   23   24 2    
    47   23   25 1    
    48   25   26 1    
    49   25   27 1    
    50   25   87 1    
    51   26   88 1    
    52   26   89 1    
    53   26   90 1    
    54   27   28 am   BACKBONE|DICT|INTERRES
    55   27   91 1    
    56   28   29 2    
    57   28   30 1    
    58   30   31 1    
    59   30   32 1    
    60   30   92 1    
    61   31   93 1    
    62   31   94 1    
    63   31   95 1    
    64   32   33 am   BACKBONE|DICT|INTERRES
    65   32   96 1    
    66   33   34 2    
    67   33   35 1    
    68   35   36 1    
    69   35   37 1    
    70   35   97 1    
    71   36   98 1    
    72   36   99 1    
    73   36  100 1    
    74   37   38 am   BACKBONE|DICT|INTERRES
    75   37  101 1    
    76   38   39 2    
    77   38   40 1    
    78   40   41 1    
    79   40   42 1    
    80   40  102 1    
    81   41  103 1    
    82   41  104 1    
    83   41  105 1    
    84   42   43 am   BACKBONE|DICT|INTERRES
    85   42  106 1    
    86   43   44 2    
    87   43   45 1    
    88   45   46 1    
    89   45   49 1    
    90   45  107 1    
    91   46   47 1    
    92   46  108 1    
    93   46  109 1    
    94   47   48 1    
    95   48  110 1    
    96   48  111 1    
    97   49   50 am   BACKBONE|DICT|INTERRES
    98   49  112 1    
    99   50   51 2    
   100   50   52 1    
   101   52   53 1    
   102   52   54 1    
   103   52  113 1    
   104   53  114 1    
   105   53  115 1    
   106   53  116 1    
   107   54   55 am   BACKBONE|DICT|INTERRES
   108   54  117 1    
   109   55   56 2    
   110   55   57 1    
   111   57   58 1    
   112   57   59 1    
   113   57  118 1    
   114   58  119 1    
   115   58  120 1    
   116   58  121 1    
   117   59   60 am   BACKBONE|DICT|INTERRES
   118   59  122 1    
   119   60   61 2    
   120   60   62 1    
   121   62   63 1    
   122   62   64 1    
   123   62  123 1    
   124   63  124 1    
   125   63  125 1    
   126   63  126 1    
   127   64   65 am   BACKBONE|DICT|INTERRES
   128   64  127 1    
   129   65   66 2    
@<TRIPOS>SUBSTRUCTURE
     1 UNK         1 GROUP             0       ****    0 ROOT    
