@<TRIPOS>MOLECULE
3R135
127   129    1
SMALL
USER_CHARGES


@<TRIPOS>ATOM
      1 CA        -84.3560   26.7456  -70.9473 C.3       0 UNK        -0.1998 
      2 C         -82.9334   27.1527  -70.5733 C.2       0 UNK         0.4909 
      3 O         -82.4601   26.7799  -69.5021 O.2       0 UNK        -0.5240 
      4 N         -82.2106   27.9132  -71.4079 N.am      1 UNK        -0.4739 
      5 CA        -82.6020   28.4040  -72.7380 C.3       1 UNK         0.0864 
      6 C6        -81.8271   29.6937  -73.1204 C.3       11 UNK        -0.0881 
      7 S7        -80.0150   29.4870  -73.2047 S.3       11 UNK        -0.2682 
      8 C8        -79.4912   30.0689  -71.5578 C.3       11 UNK         0.0289 
      9 C9        -78.1507   29.4575  -71.1824 C.ar      11 UNK        -0.0687 
     10 C10       -78.0481   28.0743  -71.0180 C.ar      11 UNK        -0.0823 
     11 C11       -76.8111   27.4746  -70.7707 C.ar      11 UNK        -0.0830 
     12 C12       -75.6783   28.2792  -70.6179 C.ar      11 UNK        -0.1021 
     13 C13       -75.7719   29.6682  -70.7474 C.ar      11 UNK        -0.0753 
     14 C14       -77.0109   30.2531  -71.0339 C.ar      11 UNK        -0.0933 
     15 C15       -74.5281   30.5318  -70.5903 C.3       11 UNK         0.0166 
     16 S16       -73.4005   30.3829  -72.0145 S.3       11 UNK        -0.2615 
     17 C17       -74.4072   31.0878  -73.3651 C.3       11 UNK        -0.0865 
     18 CA        -74.7594   30.0355  -74.4595 C.3       10 UNK         0.0862 
     19 C         -75.8628   30.5333  -75.4434 C.2       10 UNK         0.5551 
     20 N         -75.8686   30.0986  -76.6981 N.am      10 UNK        -0.7319 
     21 O         -76.7393   31.3068  -75.0664 O.2       10 UNK        -0.5018 
     22 N         -73.5713   29.4633  -75.1252 N.am      10 UNK        -0.4509 
     23 C         -72.6578   30.1441  -75.8355 C.2       10 UNK         0.4899 
     24 O         -72.6984   31.3633  -76.0064 O.2       10 UNK        -0.4839 
     25 CA        -71.5300   29.3371  -76.5131 C.3       9 UNK         0.0222 
     26 CB        -70.2138   30.1353  -76.6344 C.3       9 UNK        -0.1966 
     27 N         -71.2992   28.0116  -75.9271 N.am      9 UNK        -0.4218 
     28 C         -70.8313   27.7164  -74.7025 C.2       9 UNK         0.5020 
     29 O         -70.4493   28.5626  -73.8938 O.2       9 UNK        -0.5274 
     30 CA        -70.7934   26.2285  -74.2959 C.3       8 UNK         0.0270 
     31 CB        -71.4929   26.0128  -72.9404 C.3       8 UNK        -0.1976 
     32 N         -71.4399   25.3732  -75.2945 N.am      8 UNK        -0.4313 
     33 C         -70.8095   24.6307  -76.2154 C.2       8 UNK         0.5041 
     34 O         -69.5858   24.5073  -76.2738 O.2       8 UNK        -0.5577 
     35 CA        -71.6858   23.9232  -77.2704 C.3       7 UNK         0.0284 
     36 CB        -71.9237   22.4577  -76.8732 C.3       7 UNK        -0.1958 
     37 N         -72.9800   24.5773  -77.4956 N.am      7 UNK        -0.4454 
     38 C         -73.1356   25.8094  -78.0060 C.2       7 UNK         0.5089 
     39 O         -72.2015   26.4962  -78.4171 O.2       7 UNK        -0.5125 
     40 CA        -74.5498   26.4210  -77.9682 C.3       6 UNK         0.0408 
     41 CB        -75.2555   26.2234  -79.3169 C.3       6 UNK        -0.1791 
     42 N         -75.3859   25.8887  -76.8856 N.am      6 UNK        -0.4762 
     43 C         -75.0786   25.9623  -75.5791 C.2       6 UNK         0.5007 
     44 O         -74.1088   26.5960  -75.1608 O.2       6 UNK        -0.5032 
     45 CA        -75.9220   25.1529  -74.5716 C.3       5 UNK         0.0783 
     46 C46       -76.6462   26.0887  -73.5823 C.3       11 UNK        -0.0857 
     47 S47       -77.4325   25.1674  -72.2120 S.3       11 UNK        -0.2512 
     48 C48       -76.6871   25.9556  -70.7401 C.3       11 UNK         0.0225 
     49 N         -76.8410   24.2095  -75.2146 N.am      5 UNK        -0.4615 
     50 C         -76.4658   23.1002  -75.8666 C.2       4 UNK         0.5053 
     51 O         -75.2911   22.7518  -75.9901 O.2       4 UNK        -0.5105 
     52 CA        -77.5747   22.2641  -76.5317 C.3       4 UNK         0.0263 
     53 CB        -77.9855   21.1006  -75.6154 C.3       4 UNK        -0.1981 
     54 N         -78.7678   23.0382  -76.8912 N.am      4 UNK        -0.4224 
     55 C         -78.7940   24.0710  -77.7476 C.2       3 UNK         0.4895 
     56 O         -77.8068   24.4696  -78.3647 O.2       3 UNK        -0.5091 
     57 CA        -80.1345   24.8090  -77.9155 C.3       3 UNK         0.0250 
     58 CB        -80.8911   24.2745  -79.1421 C.3       3 UNK        -0.1996 
     59 N         -81.0037   24.7332  -76.7345 N.am      3 UNK        -0.4254 
     60 C         -80.7170   25.2768  -75.5431 C.2       2 UNK         0.5004 
     61 O         -79.6742   25.8871  -75.3015 O.2       2 UNK        -0.5226 
     62 CA        -81.7314   25.0267  -74.4174 C.3       2 UNK         0.0269 
     63 CB        -81.3039   23.8087  -73.5812 C.3       2 UNK        -0.1926 
     64 N         -81.8611   26.1844  -73.5326 N.am      2 UNK        -0.4687 
     65 C         -82.5203   27.3130  -73.8335 C.2       1 UNK         0.5165 
     66 O         -83.0963   27.4941  -74.9073 O.2       1 UNK        -0.5079 
     67 H67       -84.9904   27.6214  -71.0785 H         1 UNK         0.0900 
     68 H68       -84.7967   26.1367  -70.1582 H         1 UNK         0.0900 
     69 H69       -84.3706   26.1561  -71.8629 H         1 UNK         0.0900 
     70 H70       -81.2736   28.1636  -71.1306 H         1 UNK         0.2959 
     71 H71       -83.6544   28.6897  -72.6922 H         1 UNK         0.1079 
     72 H72       -82.0619   30.4890  -72.4110 H         1 UNK         0.0837 
     73 H73       -82.1694   30.0643  -74.0886 H         1 UNK         0.0837 
     74 H74       -79.4398   31.1587  -71.5648 H         1 UNK         0.0685 
     75 H75       -80.2279   29.7973  -70.8016 H         1 UNK         0.0685 
     76 H76       -78.9239   27.4541  -71.1495 H         1 UNK         0.1434 
     77 H77       -74.7142   27.8271  -70.4276 H         1 UNK         0.1329 
     78 H78       -77.0853   31.3249  -71.1567 H         1 UNK         0.1335 
     79 H79       -73.9945   30.2312  -69.6875 H         1 UNK         0.0680 
     80 H80       -74.7964   31.5802  -70.4503 H         1 UNK         0.0680 
     81 H81       -75.3145   31.5148  -72.9373 H         1 UNK         0.1032 
     82 H82       -73.8713   31.9346  -73.7943 H         1 UNK         0.1032 
     83 H83       -75.2272   29.1940  -73.9468 H         1 UNK         0.0461 
     84 H84       -76.5878   30.4185  -77.3271 H         1 UNK         0.3453 
     85 H85       -75.1568   29.4650  -77.0194 H         1 UNK         0.3453 
     86 H86       -73.4936   28.4528  -75.0667 H         1 UNK         0.2984 
     87 H87       -71.8816   29.1460  -77.5277 H         1 UNK         0.0554 
     88 H88       -69.4360   29.5481  -77.1223 H         1 UNK         0.0847 
     89 H89       -69.8381   30.4489  -75.6601 H         1 UNK         0.0847 
     90 H90       -70.3563   31.0377  -77.2300 H         1 UNK         0.0847 
     91 H91       -71.5545   27.2392  -76.5308 H         1 UNK         0.3141 
     92 H92       -69.7433   25.9507  -74.1857 H         1 UNK         0.0743 
     93 H93       -71.4762   24.9629  -72.6477 H         1 UNK         0.0784 
     94 H94       -70.9959   26.5754  -72.1490 H         1 UNK         0.0784 
     95 H95       -72.5334   26.3390  -72.9644 H         1 UNK         0.0784 
     96 H96       -72.4501   25.4536  -75.3381 H         1 UNK         0.3213 
     97 H97       -71.1360   23.9386  -78.2140 H         1 UNK         0.0855 
     98 H98       -72.4790   22.3781  -75.9376 H         1 UNK         0.0814 
     99 H99       -70.9778   21.9315  -76.7369 H         1 UNK         0.0814 
    100 H100      -72.4833   21.9231  -77.6409 H         1 UNK         0.0814 
    101 H101      -73.8014   24.0811  -77.1704 H         1 UNK         0.3105 
    102 H102      -74.4364   27.4930  -77.7977 H         1 UNK         0.0547 
    103 H103      -74.6712   26.6546  -80.1310 H         1 UNK         0.0837 
    104 H104      -75.4021   25.1669  -79.5446 H         1 UNK         0.0837 
    105 H105      -76.2326   26.7067  -79.3288 H         1 UNK         0.0837 
    106 H106      -76.2023   25.3563  -77.1667 H         1 UNK         0.3020 
    107 H107      -75.2029   24.5637  -73.9976 H         1 UNK         0.1245 
    108 H108      -77.4118   26.6781  -74.0899 H         1 UNK         0.0781 
    109 H109      -75.9377   26.8096  -73.1718 H         1 UNK         0.0781 
    110 H110      -75.6405   25.6534  -70.6764 H         1 UNK         0.0836 
    111 H111      -77.1766   25.5738  -69.8434 H         1 UNK         0.0836 
    112 H112      -77.8221   24.4549  -75.1745 H         1 UNK         0.3022 
    113 H113      -77.1601   21.8491  -77.4527 H         1 UNK         0.0747 
    114 H114      -78.7053   20.4439  -76.1043 H         1 UNK         0.0793 
    115 H115      -77.1214   20.4896  -75.3499 H         1 UNK         0.0793 
    116 H116      -78.4306   21.4567  -74.6852 H         1 UNK         0.0793 
    117 H117      -79.6302   22.7799  -76.4355 H         1 UNK         0.3047 
    118 H118      -79.9022   25.8621  -78.0890 H         1 UNK         0.0822 
    119 H119      -81.1731   23.2279  -79.0202 H         1 UNK         0.0807 
    120 H120      -80.2753   24.3433  -80.0402 H         1 UNK         0.0807 
    121 H121      -81.7986   24.8485  -79.3305 H         1 UNK         0.0807 
    122 H122      -81.8760   24.2364  -76.8494 H         1 UNK         0.2946 
    123 H123      -82.7095   24.8225  -74.8594 H         1 UNK         0.1144 
    124 H124      -80.3283   23.9610  -73.1166 H         1 UNK         0.0793 
    125 H125      -81.2342   22.9121  -74.1985 H         1 UNK         0.0793 
    126 H126      -82.0229   23.5987  -72.7891 H         1 UNK         0.0793 
    127 H127      -81.3769   26.1378  -72.6482 H         1 UNK         0.2896 
@<TRIPOS>BOND
     1    1    2 1    
     2    1   67 1    
     3    1   68 1    
     4    1   69 1    
     5    2    3 2    
     6    2    4 am   BACKBONE|DICT|INTERRES
     7    4    5 1    
     8    4   70 1    
     9    5    6 1    
    10    5   65 1    
    11    5   71 1    
    12    6    7 1    
    13    6   72 1    
    14    6   73 1    
    15    7    8 1    
    16    8    9 1    
    17    8   74 1    
    18    8   75 1    
    19    9   10 ar   
    20    9   14 ar   
    21   10   11 ar   
    22   10   76 1    
    23   11   12 ar   
    24   11   48 1    
    25   12   13 ar   
    26   12   77 1    
    27   13   14 ar   
    28   13   15 1    
    29   14   78 1    
    30   15   16 1    
    31   15   79 1    
    32   15   80 1    
    33   16   17 1    
    34   17   18 1    
    35   17   81 1    
    36   17   82 1    
    37   18   19 1    
    38   18   22 1    
    39   18   83 1    
    40   19   20 am   BACKBONE|DICT|INTERRES
    41   19   21 2    
    42   20   84 1    
    43   20   85 1    
    44   22   23 am   BACKBONE|DICT|INTERRES
    45   22   86 1    
    46   23   24 2    
    47   23   25 1    
    48   25   26 1    
    49   25   27 1    
    50   25   87 1    
    51   26   88 1    
    52   26   89 1    
    53   26   90 1    
    54   27   28 am   BACKBONE|DICT|INTERRES
    55   27   91 1    
    56   28   29 2    
    57   28   30 1    
    58   30   31 1    
    59   30   32 1    
    60   30   92 1    
    61   31   93 1    
    62   31   94 1    
    63   31   95 1    
    64   32   33 am   BACKBONE|DICT|INTERRES
    65   32   96 1    
    66   33   34 2    
    67   33   35 1    
    68   35   36 1    
    69   35   37 1    
    70   35   97 1    
    71   36   98 1    
    72   36   99 1    
    73   36  100 1    
    74   37   38 am   BACKBONE|DICT|INTERRES
    75   37  101 1    
    76   38   39 2    
    77   38   40 1    
    78   40   41 1    
    79   40   42 1    
    80   40  102 1    
    81   41  103 1    
    82   41  104 1    
    83   41  105 1    
    84   42   43 am   BACKBONE|DICT|INTERRES
    85   42  106 1    
    86   43   44 2    
    87   43   45 1    
    88   45   46 1    
    89   45   49 1    
    90   45  107 1    
    91   46   47 1    
    92   46  108 1    
    93   46  109 1    
    94   47   48 1    
    95   48  110 1    
    96   48  111 1    
    97   49   50 am   BACKBONE|DICT|INTERRES
    98   49  112 1    
    99   50   51 2    
   100   50   52 1    
   101   52   53 1    
   102   52   54 1    
   103   52  113 1    
   104   53  114 1    
   105   53  115 1    
   106   53  116 1    
   107   54   55 am   BACKBONE|DICT|INTERRES
   108   54  117 1    
   109   55   56 2    
   110   55   57 1    
   111   57   58 1    
   112   57   59 1    
   113   57  118 1    
   114   58  119 1    
   115   58  120 1    
   116   58  121 1    
   117   59   60 am   BACKBONE|DICT|INTERRES
   118   59  122 1    
   119   60   61 2    
   120   60   62 1    
   121   62   63 1    
   122   62   64 1    
   123   62  123 1    
   124   63  124 1    
   125   63  125 1    
   126   63  126 1    
   127   64   65 am   BACKBONE|DICT|INTERRES
   128   64  127 1    
   129   65   66 2    
@<TRIPOS>SUBSTRUCTURE
     1 UNK         1 GROUP             0       ****    0 ROOT    
