@<TRIPOS>MOLECULE
3R135
127   129    1
SMALL
USER_CHARGES


@<TRIPOS>ATOM
      1 CA        -79.5823   27.9629  -70.5438 C.3       0 UNK        -0.1998 
      2 C         -80.3983   27.8890  -71.8259 C.2       0 UNK         0.4909 
      3 O         -81.6020   28.1494  -71.8064 O.2       0 UNK        -0.5240 
      4 N         -79.7456   27.5483  -72.9425 N.am      1 UNK        -0.4739 
      5 CA        -80.3574   27.3952  -74.2633 C.3       1 UNK         0.0864 
      6 C6        -79.3107   27.4089  -75.4130 C.3       11 UNK        -0.0881 
      7 S7        -78.5048   28.9932  -75.8690 S.3       11 UNK        -0.2682 
      8 C8        -78.5274   30.0834  -74.4014 C.3       11 UNK         0.0289 
      9 C9        -77.5181   29.7552  -73.2975 C.ar      11 UNK        -0.0687 
     10 C10       -76.8173   28.5446  -73.2383 C.ar      11 UNK        -0.0823 
     11 C11       -75.9782   28.2490  -72.1610 C.ar      11 UNK        -0.0830 
     12 C12       -75.7908   29.1994  -71.1547 C.ar      11 UNK        -0.1021 
     13 C13       -76.4454   30.4324  -71.2227 C.ar      11 UNK        -0.0753 
     14 C14       -77.3173   30.6946  -72.2831 C.ar      11 UNK        -0.0933 
     15 C15       -76.2213   31.4897  -70.1546 C.3       11 UNK         0.0166 
     16 S16       -75.0829   32.7874  -70.7355 S.3       11 UNK        -0.2615 
     17 C17       -73.4587   31.9664  -70.5899 C.3       11 UNK        -0.0865 
     18 CA        -72.7113   31.8248  -71.9433 C.3       10 UNK         0.0862 
     19 C         -71.2372   31.3806  -71.6954 C.2       10 UNK         0.5551 
     20 N         -70.8129   30.1865  -72.0924 N.am      10 UNK        -0.7319 
     21 O         -70.4599   32.1436  -71.1269 O.2       10 UNK        -0.5018 
     22 N         -73.4543   30.9895  -72.9023 N.am      10 UNK        -0.4509 
     23 C         -73.1768   30.9002  -74.2088 C.2       10 UNK         0.4899 
     24 O         -72.3508   31.6034  -74.7944 O.2       10 UNK        -0.4839 
     25 CA        -73.9277   29.8101  -74.9904 C.3       9 UNK         0.0222 
     26 CB        -74.8289   30.4111  -76.0802 C.3       9 UNK        -0.1966 
     27 N         -73.0143   28.8308  -75.5819 N.am      9 UNK        -0.4218 
     28 C         -72.1733   28.0514  -74.8854 C.2       9 UNK         0.5020 
     29 O         -72.0841   28.0711  -73.6552 O.2       9 UNK        -0.5274 
     30 CA        -71.3060   27.0809  -75.7016 C.3       8 UNK         0.0270 
     31 CB        -70.5770   26.0428  -74.8263 C.3       8 UNK        -0.1976 
     32 N         -72.1330   26.3868  -76.6871 N.am      8 UNK        -0.4313 
     33 C         -71.7913   26.1562  -77.9620 C.2       8 UNK         0.5041 
     34 O         -70.7209   26.5172  -78.4537 O.2       8 UNK        -0.5577 
     35 CA        -72.7903   25.3872  -78.8518 C.3       7 UNK         0.0284 
     36 CB        -72.2962   23.9510  -79.0933 C.3       7 UNK        -0.1958 
     37 N         -74.1516   25.3344  -78.3137 N.am      7 UNK        -0.4454 
     38 C         -74.9821   26.3810  -78.2190 C.2       7 UNK         0.5089 
     39 O         -74.7176   27.5041  -78.6479 O.2       7 UNK        -0.5125 
     40 CA        -76.3152   26.1469  -77.4832 C.3       6 UNK         0.0408 
     41 CB        -77.4516   25.9185  -78.4904 C.3       6 UNK        -0.1791 
     42 N         -76.3044   25.0536  -76.4975 N.am      6 UNK        -0.4762 
     43 C         -75.4960   24.9955  -75.4251 C.2       6 UNK         0.5007 
     44 O         -74.5836   25.7988  -75.2369 O.2       6 UNK        -0.5032 
     45 CA        -75.7141   23.8509  -74.4153 C.3       5 UNK         0.0783 
     46 C46       -75.3614   24.2205  -72.9475 C.3       11 UNK        -0.0857 
     47 S47       -76.4280   25.5129  -72.2178 S.3       11 UNK        -0.2512 
     48 C48       -75.2577   26.9111  -72.1147 C.3       11 UNK         0.0225 
     49 N         -77.0537   23.2678  -74.5425 N.am      5 UNK        -0.4615 
     50 C         -77.3001   21.9538  -74.5550 C.2       4 UNK         0.5053 
     51 O         -76.4284   21.0935  -74.4233 O.2       4 UNK        -0.5105 
     52 CA        -78.7582   21.5059  -74.7574 C.3       4 UNK         0.0263 
     53 CB        -79.4781   21.4246  -73.4014 C.3       4 UNK        -0.1981 
     54 N         -79.5735   22.3093  -75.6769 N.am      4 UNK        -0.4224 
     55 C         -79.2649   22.7285  -76.9118 C.2       3 UNK         0.4895 
     56 O         -78.1411   22.6442  -77.4072 O.2       3 UNK        -0.5091 
     57 CA        -80.3922   23.3659  -77.7505 C.3       3 UNK         0.0250 
     58 CB        -81.0838   22.3051  -78.6288 C.3       3 UNK        -0.1996 
     59 N         -81.3738   24.1594  -76.9922 N.am      3 UNK        -0.4254 
     60 C         -82.2694   23.7562  -76.0762 C.2       2 UNK         0.5004 
     61 O         -82.4211   22.5820  -75.7357 O.2       2 UNK        -0.5226 
     62 CA        -83.0742   24.8758  -75.3831 C.3       2 UNK         0.0269 
     63 CB        -83.8244   24.3850  -74.1259 C.3       2 UNK        -0.1926 
     64 N         -82.2436   26.0501  -75.0674 N.am      2 UNK        -0.4687 
     65 C         -81.1339   26.0644  -74.3107 C.2       1 UNK         0.5165 
     66 O         -80.6754   25.0728  -73.7366 O.2       1 UNK        -0.5079 
     67 H67       -80.0514   27.3659  -69.7624 H         1 UNK         0.0900 
     68 H68       -79.5202   28.9946  -70.1986 H         1 UNK         0.0900 
     69 H69       -78.5667   27.5937  -70.6875 H         1 UNK         0.0900 
     70 H70       -78.7621   27.3270  -72.8848 H         1 UNK         0.2959 
     71 H71       -81.0638   28.2138  -74.4175 H         1 UNK         0.1079 
     72 H72       -79.7813   27.0718  -76.3384 H         1 UNK         0.0837 
     73 H73       -78.5282   26.6746  -75.2141 H         1 UNK         0.0837 
     74 H74       -79.5326   30.1168  -73.9814 H         1 UNK         0.0685 
     75 H75       -78.3206   31.0939  -74.7568 H         1 UNK         0.0685 
     76 H76       -76.9213   27.8077  -74.0196 H         1 UNK         0.1434 
     77 H77       -75.1301   28.9845  -70.3257 H         1 UNK         0.1329 
     78 H78       -77.8397   31.6411  -72.3190 H         1 UNK         0.1335 
     79 H79       -75.8421   31.0449  -69.2331 H         1 UNK         0.0680 
     80 H80       -77.1762   31.9506  -69.8975 H         1 UNK         0.0680 
     81 H81       -72.8700   32.5663  -69.8927 H         1 UNK         0.1032 
     82 H82       -73.5696   30.9905  -70.1148 H         1 UNK         0.1032 
     83 H83       -72.6463   32.8221  -72.3830 H         1 UNK         0.0461 
     84 H84       -71.4278   29.5383  -72.5760 H         1 UNK         0.3453 
     85 H85       -69.8558   29.9260  -71.9184 H         1 UNK         0.3453 
     86 H86       -74.1628   30.3858  -72.5089 H         1 UNK         0.2984 
     87 H87       -74.5585   29.2610  -74.2975 H         1 UNK         0.0554 
     88 H88       -75.4043   29.6375  -76.5897 H         1 UNK         0.0847 
     89 H89       -74.2516   30.9522  -76.8307 H         1 UNK         0.0847 
     90 H90       -75.5448   31.1114  -75.6478 H         1 UNK         0.0847 
     91 H91       -73.0211   28.7520  -76.5888 H         1 UNK         0.3141 
     92 H92       -70.5550   27.6938  -76.2042 H         1 UNK         0.0743 
     93 H93       -71.2825   25.4211  -74.2732 H         1 UNK         0.0784 
     94 H94       -69.9509   25.3854  -75.4297 H         1 UNK         0.0784 
     95 H95       -69.9271   26.5300  -74.0983 H         1 UNK         0.0784 
     96 H96       -73.0492   26.0957  -76.3501 H         1 UNK         0.3213 
     97 H97       -72.8278   25.9029  -79.8139 H         1 UNK         0.0855 
     98 H98       -72.2445   23.3800  -78.1653 H         1 UNK         0.0814 
     99 H99       -71.2969   23.9504  -79.5311 H         1 UNK         0.0814 
    100 H100      -72.9490   23.4159  -79.7833 H         1 UNK         0.0814 
    101 H101      -74.4610   24.4517  -77.9339 H         1 UNK         0.3105 
    102 H102      -76.5281   27.0663  -76.9358 H         1 UNK         0.0547 
    103 H103      -77.4829   26.7168  -79.2333 H         1 UNK         0.0837 
    104 H104      -77.3328   24.9762  -79.0267 H         1 UNK         0.0837 
    105 H105      -78.4208   25.9068  -77.9951 H         1 UNK         0.0837 
    106 H106      -76.9591   24.2945  -76.6513 H         1 UNK         0.3020 
    107 H107      -74.9814   23.1032  -74.7280 H         1 UNK         0.1245 
    108 H108      -74.3137   24.5174  -72.8717 H         1 UNK         0.0781 
    109 H109      -75.4498   23.3308  -72.3223 H         1 UNK         0.0781 
    110 H110      -74.5478   26.8818  -72.9406 H         1 UNK         0.0836 
    111 H111      -74.6686   26.8115  -71.2019 H         1 UNK         0.0836 
    112 H112      -77.8272   23.9137  -74.6116 H         1 UNK         0.3022 
    113 H113      -78.7219   20.5001  -75.1800 H         1 UNK         0.0747 
    114 H114      -80.4661   20.9748  -73.5024 H         1 UNK         0.0793 
    115 H115      -78.9162   20.8148  -72.6924 H         1 UNK         0.0793 
    116 H116      -79.6049   22.4127  -72.9560 H         1 UNK         0.0793 
    117 H117      -80.5470   22.4259  -75.4088 H         1 UNK         0.3047 
    118 H118      -79.9085   24.0709  -78.4275 H         1 UNK         0.0822 
    119 H119      -81.8325   22.7558  -79.2802 H         1 UNK         0.0807 
    120 H120      -81.5766   21.5366  -78.0325 H         1 UNK         0.0807 
    121 H121      -80.3597   21.7998  -79.2695 H         1 UNK         0.0807 
    122 H122      -81.3337   25.1534  -77.1677 H         1 UNK         0.2946 
    123 H123      -83.8230   25.2013  -76.1074 H         1 UNK         0.1144 
    124 H124      -84.3972   25.1902  -73.6661 H         1 UNK         0.0793 
    125 H125      -83.1413   23.9880  -73.3740 H         1 UNK         0.0793 
    126 H126      -84.5282   23.5900  -74.3760 H         1 UNK         0.0793 
    127 H127      -82.5336   26.9137  -75.5070 H         1 UNK         0.2896 
@<TRIPOS>BOND
     1    1    2 1    
     2    1   67 1    
     3    1   68 1    
     4    1   69 1    
     5    2    3 2    
     6    2    4 am   BACKBONE|DICT|INTERRES
     7    4    5 1    
     8    4   70 1    
     9    5    6 1    
    10    5   65 1    
    11    5   71 1    
    12    6    7 1    
    13    6   72 1    
    14    6   73 1    
    15    7    8 1    
    16    8    9 1    
    17    8   74 1    
    18    8   75 1    
    19    9   10 ar   
    20    9   14 ar   
    21   10   11 ar   
    22   10   76 1    
    23   11   12 ar   
    24   11   48 1    
    25   12   13 ar   
    26   12   77 1    
    27   13   14 ar   
    28   13   15 1    
    29   14   78 1    
    30   15   16 1    
    31   15   79 1    
    32   15   80 1    
    33   16   17 1    
    34   17   18 1    
    35   17   81 1    
    36   17   82 1    
    37   18   19 1    
    38   18   22 1    
    39   18   83 1    
    40   19   20 am   BACKBONE|DICT|INTERRES
    41   19   21 2    
    42   20   84 1    
    43   20   85 1    
    44   22   23 am   BACKBONE|DICT|INTERRES
    45   22   86 1    
    46   23   24 2    
    47   23   25 1    
    48   25   26 1    
    49   25   27 1    
    50   25   87 1    
    51   26   88 1    
    52   26   89 1    
    53   26   90 1    
    54   27   28 am   BACKBONE|DICT|INTERRES
    55   27   91 1    
    56   28   29 2    
    57   28   30 1    
    58   30   31 1    
    59   30   32 1    
    60   30   92 1    
    61   31   93 1    
    62   31   94 1    
    63   31   95 1    
    64   32   33 am   BACKBONE|DICT|INTERRES
    65   32   96 1    
    66   33   34 2    
    67   33   35 1    
    68   35   36 1    
    69   35   37 1    
    70   35   97 1    
    71   36   98 1    
    72   36   99 1    
    73   36  100 1    
    74   37   38 am   BACKBONE|DICT|INTERRES
    75   37  101 1    
    76   38   39 2    
    77   38   40 1    
    78   40   41 1    
    79   40   42 1    
    80   40  102 1    
    81   41  103 1    
    82   41  104 1    
    83   41  105 1    
    84   42   43 am   BACKBONE|DICT|INTERRES
    85   42  106 1    
    86   43   44 2    
    87   43   45 1    
    88   45   46 1    
    89   45   49 1    
    90   45  107 1    
    91   46   47 1    
    92   46  108 1    
    93   46  109 1    
    94   47   48 1    
    95   48  110 1    
    96   48  111 1    
    97   49   50 am   BACKBONE|DICT|INTERRES
    98   49  112 1    
    99   50   51 2    
   100   50   52 1    
   101   52   53 1    
   102   52   54 1    
   103   52  113 1    
   104   53  114 1    
   105   53  115 1    
   106   53  116 1    
   107   54   55 am   BACKBONE|DICT|INTERRES
   108   54  117 1    
   109   55   56 2    
   110   55   57 1    
   111   57   58 1    
   112   57   59 1    
   113   57  118 1    
   114   58  119 1    
   115   58  120 1    
   116   58  121 1    
   117   59   60 am   BACKBONE|DICT|INTERRES
   118   59  122 1    
   119   60   61 2    
   120   60   62 1    
   121   62   63 1    
   122   62   64 1    
   123   62  123 1    
   124   63  124 1    
   125   63  125 1    
   126   63  126 1    
   127   64   65 am   BACKBONE|DICT|INTERRES
   128   64  127 1    
   129   65   66 2    
@<TRIPOS>SUBSTRUCTURE
     1 UNK         1 GROUP             0       ****    0 ROOT    
