@<TRIPOS>MOLECULE
3R135
127   129    1
SMALL
USER_CHARGES


@<TRIPOS>ATOM
      1 CA        -76.3343   26.8115  -72.2635 C.3       0 UNK        -0.1998 
      2 C         -77.0272   26.2395  -71.0401 C.2       0 UNK         0.4909 
      3 O         -76.4951   25.3412  -70.3886 O.2       0 UNK        -0.5240 
      4 N         -78.2320   26.7405  -70.7436 N.am      1 UNK        -0.4739 
      5 CA        -79.1493   26.2011  -69.7302 C.3       1 UNK         0.0864 
      6 C6        -80.2463   27.2325  -69.3609 C.3       11 UNK        -0.0881 
      7 S7        -81.1621   27.8806  -70.8075 S.3       11 UNK        -0.2682 
      8 C8        -80.3120   29.4696  -71.1260 C.3       11 UNK         0.0289 
      9 C9        -79.8830   29.6904  -72.5788 C.ar      11 UNK        -0.0687 
     10 C10       -80.5714   29.1164  -73.6570 C.ar      11 UNK        -0.0823 
     11 C11       -80.1959   29.3931  -74.9749 C.ar      11 UNK        -0.0830 
     12 C12       -79.1268   30.2602  -75.2165 C.ar      11 UNK        -0.1021 
     13 C13       -78.4239   30.8356  -74.1560 C.ar      11 UNK        -0.0753 
     14 C14       -78.8052   30.5447  -72.8420 C.ar      11 UNK        -0.0933 
     15 C15       -77.2834   31.8051  -74.4407 C.3       11 UNK         0.0166 
     16 S16       -75.7939   30.9515  -75.0477 S.3       11 UNK        -0.2615 
     17 C17       -75.2151   30.1120  -73.5366 C.3       11 UNK        -0.0865 
     18 CA        -73.7192   30.3805  -73.2420 C.3       10 UNK         0.0862 
     19 C         -73.3616   29.9195  -71.8022 C.2       10 UNK         0.5551 
     20 N         -73.3361   30.8371  -70.8456 N.am      10 UNK        -0.7319 
     21 O         -73.1628   28.7361  -71.5392 O.2       10 UNK        -0.5018 
     22 N         -72.8679   29.7480  -74.2591 N.am      10 UNK        -0.4509 
     23 C         -71.5426   29.9088  -74.3703 C.2       10 UNK         0.4899 
     24 O         -70.8865   30.6911  -73.6802 O.2       10 UNK        -0.4839 
     25 CA        -70.8435   29.0605  -75.4515 C.3       9 UNK         0.0222 
     26 CB        -69.3074   29.0218  -75.3002 C.3       9 UNK        -0.1966 
     27 N         -71.4069   27.7083  -75.5600 N.am      9 UNK        -0.4218 
     28 C         -71.4000   26.7399  -74.6265 C.2       9 UNK         0.5020 
     29 O         -70.8094   26.8329  -73.5501 O.2       9 UNK        -0.5274 
     30 CA        -72.1983   25.4518  -74.9181 C.3       8 UNK         0.0270 
     31 CB        -73.2894   25.2415  -73.8553 C.3       8 UNK        -0.1976 
     32 N         -72.8293   25.4655  -76.2393 N.am      8 UNK        -0.4313 
     33 C         -72.2346   25.0599  -77.3708 C.2       8 UNK         0.5041 
     34 O         -71.1255   24.5264  -77.4055 O.2       8 UNK        -0.5577 
     35 CA        -72.9770   25.3266  -78.6940 C.3       7 UNK         0.0284 
     36 CB        -73.6416   24.0415  -79.2127 C.3       7 UNK        -0.1958 
     37 N         -73.9693   26.4051  -78.5939 N.am      7 UNK        -0.4454 
     38 C         -73.6485   27.6956  -78.4041 C.2       7 UNK         0.5089 
     39 O         -72.4869   28.0948  -78.3279 O.2       7 UNK        -0.5125 
     40 CA        -74.7871   28.7122  -78.2078 C.3       6 UNK         0.0408 
     41 CB        -75.0548   29.4762  -79.5132 C.3       6 UNK        -0.1791 
     42 N         -76.0409   28.1345  -77.7218 N.am      6 UNK        -0.4762 
     43 C         -76.2090   27.5056  -76.5491 C.2       6 UNK         0.5007 
     44 O         -75.2917   27.3133  -75.7471 O.2       6 UNK        -0.5032 
     45 CA        -77.6184   26.9471  -76.2402 C.3       5 UNK         0.0783 
     46 C46       -78.7253   27.4446  -77.2134 C.3       11 UNK        -0.0857 
     47 S47       -80.3941   27.1105  -76.5570 S.3       11 UNK        -0.2512 
     48 C48       -80.9728   28.7864  -76.1362 C.3       11 UNK         0.0225 
     49 N         -77.5991   25.4808  -76.1474 N.am      5 UNK        -0.4615 
     50 C         -77.1040   24.6291  -77.0615 C.2       4 UNK         0.5053 
     51 O         -76.5467   24.9793  -78.1027 O.2       4 UNK        -0.5105 
     52 CA        -77.2723   23.1256  -76.7787 C.3       4 UNK         0.0263 
     53 CB        -76.1358   22.6241  -75.8719 C.3       4 UNK        -0.1981 
     54 N         -78.5627   22.8067  -76.1648 N.am      4 UNK        -0.4224 
     55 C         -79.7586   23.0134  -76.7358 C.2       3 UNK         0.4895 
     56 O         -79.9008   23.3342  -77.9166 O.2       3 UNK        -0.5091 
     57 CA        -81.0158   22.8476  -75.8554 C.3       3 UNK         0.0250 
     58 CB        -81.8394   21.6333  -76.3182 C.3       3 UNK        -0.1996 
     59 N         -80.7887   22.7382  -74.4062 N.am      3 UNK        -0.4254 
     60 C         -80.1804   23.6423  -73.6263 C.2       2 UNK         0.5004 
     61 O         -79.6220   24.6598  -74.0511 O.2       2 UNK        -0.5226 
     62 CA        -80.1479   23.3324  -72.1243 C.3       2 UNK         0.0269 
     63 CB        -79.1842   22.1684  -71.8190 C.3       2 UNK        -0.1926 
     64 N         -79.7002   24.5426  -71.4522 N.am      2 UNK        -0.4687 
     65 C         -79.7565   24.8408  -70.1506 C.2       1 UNK         0.5165 
     66 O         -80.2477   24.0985  -69.2988 O.2       1 UNK        -0.5079 
     67 H67       -76.9095   27.6252  -72.7040 H         1 UNK         0.0900 
     68 H68       -76.2166   26.0367  -73.0205 H         1 UNK         0.0900 
     69 H69       -75.3475   27.1865  -71.9956 H         1 UNK         0.0900 
     70 H70       -78.6233   27.4748  -71.3170 H         1 UNK         0.2959 
     71 H71       -78.5659   26.0025  -68.8282 H         1 UNK         0.1079 
     72 H72       -80.9668   26.7923  -68.6685 H         1 UNK         0.0837 
     73 H73       -79.8002   28.0613  -68.8099 H         1 UNK         0.0837 
     74 H74       -80.9824   30.2801  -70.8373 H         1 UNK         0.0685 
     75 H75       -79.4379   29.5547  -70.4792 H         1 UNK         0.0685 
     76 H76       -81.4159   28.4652  -73.4809 H         1 UNK         0.1434 
     77 H77       -78.8418   30.5004  -76.2314 H         1 UNK         0.1329 
     78 H78       -78.2768   31.0079  -72.0197 H         1 UNK         0.1335 
     79 H79       -77.6058   32.5226  -75.1966 H         1 UNK         0.0680 
     80 H80       -77.0346   32.3912  -73.5546 H         1 UNK         0.0680 
     81 H81       -75.3876   29.0441  -73.6601 H         1 UNK         0.1032 
     82 H82       -75.8339   30.4258  -72.6941 H         1 UNK         0.1032 
     83 H83       -73.5475   31.4574  -73.3023 H         1 UNK         0.0461 
     84 H84       -73.1236   30.5537  -69.9019 H         1 UNK         0.3453 
     85 H85       -73.5058   31.8097  -71.0497 H         1 UNK         0.3453 
     86 H86       -73.3265   29.0759  -74.8563 H         1 UNK         0.2984 
     87 H87       -71.0614   29.5512  -76.4011 H         1 UNK         0.0554 
     88 H88       -68.8465   28.4191  -76.0825 H         1 UNK         0.0847 
     89 H89       -69.0029   28.6125  -74.3366 H         1 UNK         0.0847 
     90 H90       -68.8836   30.0241  -75.3729 H         1 UNK         0.0847 
     91 H91       -71.8860   27.5248  -76.4347 H         1 UNK         0.3141 
     92 H92       -71.5012   24.6134  -74.8574 H         1 UNK         0.0743 
     93 H93       -73.9613   26.0973  -73.8056 H         1 UNK         0.0784 
     94 H94       -73.8857   24.3524  -74.0607 H         1 UNK         0.0784 
     95 H95       -72.8521   25.1179  -72.8637 H         1 UNK         0.0784 
     96 H96       -73.7373   25.9151  -76.2950 H         1 UNK         0.3213 
     97 H97       -72.2287   25.6348  -79.4277 H         1 UNK         0.0855 
     98 H98       -74.3412   23.6247  -78.4892 H         1 UNK         0.0814 
     99 H99       -72.8933   23.2738  -79.4140 H         1 UNK         0.0814 
    100 H100      -74.1830   24.2180  -80.1422 H         1 UNK         0.0814 
    101 H101      -74.9477   26.1289  -78.5926 H         1 UNK         0.3105 
    102 H102      -74.4487   29.4307  -77.4585 H         1 UNK         0.0547 
    103 H103      -74.1422   29.9440  -79.8857 H         1 UNK         0.0837 
    104 H104      -75.4266   28.8172  -80.2988 H         1 UNK         0.0837 
    105 H105      -75.7852   30.2719  -79.3654 H         1 UNK         0.0837 
    106 H106      -76.8326   28.2037  -78.3440 H         1 UNK         0.3020 
    107 H107      -77.8584   27.3197  -75.2426 H         1 UNK         0.1245 
    108 H108      -78.6404   28.5136  -77.4080 H         1 UNK         0.0781 
    109 H109      -78.6387   26.9532  -78.1842 H         1 UNK         0.0781 
    110 H110      -80.9101   29.4267  -77.0176 H         1 UNK         0.0836 
    111 H111      -82.0319   28.7352  -75.8793 H         1 UNK         0.0836 
    112 H112      -78.1019   25.0967  -75.3538 H         1 UNK         0.3022 
    113 H113      -77.2134   22.5984  -77.7332 H         1 UNK         0.0747 
    114 H114      -76.1868   21.5441  -75.7327 H         1 UNK         0.0793 
    115 H115      -75.1599   22.8475  -76.3047 H         1 UNK         0.0793 
    116 H116      -76.1674   23.0920  -74.8869 H         1 UNK         0.0793 
    117 H117      -78.5503   22.5393  -75.1922 H         1 UNK         0.3047 
    118 H118      -81.6166   23.7459  -76.0136 H         1 UNK         0.0822 
    119 H119      -82.7911   21.5723  -75.7899 H         1 UNK         0.0807 
    120 H120      -81.3026   20.6978  -76.1563 H         1 UNK         0.0807 
    121 H121      -82.0693   21.6963  -77.3829 H         1 UNK         0.0807 
    122 H122      -81.1862   21.9219  -73.9634 H         1 UNK         0.2946 
    123 H123      -81.1584   23.0891  -71.7890 H         1 UNK         0.1144 
    124 H124      -79.4916   21.2533  -72.3262 H         1 UNK         0.0793 
    125 H125      -79.1539   21.9450  -70.7525 H         1 UNK         0.0793 
    126 H126      -78.1664   22.3957  -72.1389 H         1 UNK         0.0793 
    127 H127      -79.3283   25.2340  -72.0930 H         1 UNK         0.2896 
@<TRIPOS>BOND
     1    1    2 1    
     2    1   67 1    
     3    1   68 1    
     4    1   69 1    
     5    2    3 2    
     6    2    4 am   BACKBONE|DICT|INTERRES
     7    4    5 1    
     8    4   70 1    
     9    5    6 1    
    10    5   65 1    
    11    5   71 1    
    12    6    7 1    
    13    6   72 1    
    14    6   73 1    
    15    7    8 1    
    16    8    9 1    
    17    8   74 1    
    18    8   75 1    
    19    9   10 ar   
    20    9   14 ar   
    21   10   11 ar   
    22   10   76 1    
    23   11   12 ar   
    24   11   48 1    
    25   12   13 ar   
    26   12   77 1    
    27   13   14 ar   
    28   13   15 1    
    29   14   78 1    
    30   15   16 1    
    31   15   79 1    
    32   15   80 1    
    33   16   17 1    
    34   17   18 1    
    35   17   81 1    
    36   17   82 1    
    37   18   19 1    
    38   18   22 1    
    39   18   83 1    
    40   19   20 am   BACKBONE|DICT|INTERRES
    41   19   21 2    
    42   20   84 1    
    43   20   85 1    
    44   22   23 am   BACKBONE|DICT|INTERRES
    45   22   86 1    
    46   23   24 2    
    47   23   25 1    
    48   25   26 1    
    49   25   27 1    
    50   25   87 1    
    51   26   88 1    
    52   26   89 1    
    53   26   90 1    
    54   27   28 am   BACKBONE|DICT|INTERRES
    55   27   91 1    
    56   28   29 2    
    57   28   30 1    
    58   30   31 1    
    59   30   32 1    
    60   30   92 1    
    61   31   93 1    
    62   31   94 1    
    63   31   95 1    
    64   32   33 am   BACKBONE|DICT|INTERRES
    65   32   96 1    
    66   33   34 2    
    67   33   35 1    
    68   35   36 1    
    69   35   37 1    
    70   35   97 1    
    71   36   98 1    
    72   36   99 1    
    73   36  100 1    
    74   37   38 am   BACKBONE|DICT|INTERRES
    75   37  101 1    
    76   38   39 2    
    77   38   40 1    
    78   40   41 1    
    79   40   42 1    
    80   40  102 1    
    81   41  103 1    
    82   41  104 1    
    83   41  105 1    
    84   42   43 am   BACKBONE|DICT|INTERRES
    85   42  106 1    
    86   43   44 2    
    87   43   45 1    
    88   45   46 1    
    89   45   49 1    
    90   45  107 1    
    91   46   47 1    
    92   46  108 1    
    93   46  109 1    
    94   47   48 1    
    95   48  110 1    
    96   48  111 1    
    97   49   50 am   BACKBONE|DICT|INTERRES
    98   49  112 1    
    99   50   51 2    
   100   50   52 1    
   101   52   53 1    
   102   52   54 1    
   103   52  113 1    
   104   53  114 1    
   105   53  115 1    
   106   53  116 1    
   107   54   55 am   BACKBONE|DICT|INTERRES
   108   54  117 1    
   109   55   56 2    
   110   55   57 1    
   111   57   58 1    
   112   57   59 1    
   113   57  118 1    
   114   58  119 1    
   115   58  120 1    
   116   58  121 1    
   117   59   60 am   BACKBONE|DICT|INTERRES
   118   59  122 1    
   119   60   61 2    
   120   60   62 1    
   121   62   63 1    
   122   62   64 1    
   123   62  123 1    
   124   63  124 1    
   125   63  125 1    
   126   63  126 1    
   127   64   65 am   BACKBONE|DICT|INTERRES
   128   64  127 1    
   129   65   66 2    
@<TRIPOS>SUBSTRUCTURE
     1 UNK         1 GROUP             0       ****    0 ROOT    
