@<TRIPOS>MOLECULE
3R135
127   129    1
SMALL
USER_CHARGES


@<TRIPOS>ATOM
      1 CA        -75.8721   23.6148  -70.4681 C.3       0 UNK        -0.1998 
      2 C         -77.1398   23.8366  -71.2776 C.2       0 UNK         0.4909 
      3 O         -77.2327   23.3553  -72.4062 O.2       0 UNK        -0.5240 
      4 N         -78.1271   24.5373  -70.6991 N.am      1 UNK        -0.4739 
      5 CA        -79.3863   25.0036  -71.3158 C.3       1 UNK         0.0864 
      6 C6        -79.1492   25.9745  -72.5060 C.3       11 UNK        -0.0881 
      7 S7        -78.1544   27.4373  -72.0609 S.3       11 UNK        -0.2682 
      8 C8        -79.3873   28.7755  -72.0769 C.3       11 UNK         0.0289 
      9 C9        -78.7635   30.0604  -72.5957 C.ar      11 UNK        -0.0687 
     10 C10       -79.0635   30.5216  -73.8819 C.ar      11 UNK        -0.0823 
     11 C11       -78.4708   31.6897  -74.3697 C.ar      11 UNK        -0.0830 
     12 C12       -77.5687   32.3918  -73.5654 C.ar      11 UNK        -0.1021 
     13 C13       -77.2605   31.9389  -72.2801 C.ar      11 UNK        -0.0753 
     14 C14       -77.8710   30.7793  -71.7948 C.ar      11 UNK        -0.0933 
     15 C15       -76.2645   32.7061  -71.4252 C.3       11 UNK         0.0166 
     16 S16       -74.5493   32.3022  -71.8788 S.3       11 UNK        -0.2615 
     17 C17       -74.3202   30.7077  -71.0222 C.3       11 UNK        -0.0865 
     18 CA        -73.0055   30.0018  -71.4462 C.3       10 UNK         0.0862 
     19 C         -72.6288   28.8535  -70.4615 C.2       10 UNK         0.5551 
     20 N         -72.3684   27.6306  -70.9071 N.am      10 UNK        -0.7319 
     21 O         -72.5578   29.0823  -69.2564 O.2       10 UNK        -0.5018 
     22 N         -73.0442   29.6035  -72.8635 N.am      10 UNK        -0.4509 
     23 C         -71.9721   29.4767  -73.6544 C.2       10 UNK         0.4899 
     24 O         -70.8252   29.7598  -73.3028 O.2       10 UNK        -0.4839 
     25 CA        -72.2340   28.9204  -75.0706 C.3       9 UNK         0.0222 
     26 CB        -70.9382   28.5187  -75.8053 C.3       9 UNK        -0.1966 
     27 N         -73.1922   27.8064  -75.1006 N.am      9 UNK        -0.4218 
     28 C         -73.1319   26.6648  -74.3946 C.2       9 UNK         0.5020 
     29 O         -72.2697   26.4163  -73.5512 O.2       9 UNK        -0.5274 
     30 CA        -74.2221   25.6201  -74.6732 C.3       8 UNK         0.0270 
     31 CB        -75.5427   26.0231  -74.0020 C.3       8 UNK        -0.1976 
     32 N         -74.4459   25.4129  -76.1024 N.am      8 UNK        -0.4313 
     33 C         -73.5688   24.8589  -76.9505 C.2       8 UNK         0.5041 
     34 O         -72.4746   24.4044  -76.6143 O.2       8 UNK        -0.5577 
     35 CA        -73.9806   24.8135  -78.4297 C.3       7 UNK         0.0284 
     36 CB        -74.9378   23.6416  -78.7028 C.3       7 UNK        -0.1958 
     37 N         -74.6045   26.0695  -78.8484 N.am      7 UNK        -0.4454 
     38 C         -73.9237   27.1742  -79.1818 C.2       7 UNK         0.5089 
     39 O         -72.6951   27.2316  -79.2367 O.2       7 UNK        -0.5125 
     40 CA        -74.7459   28.4309  -79.5224 C.3       6 UNK         0.0408 
     41 CB        -74.9276   28.5538  -81.0435 C.3       6 UNK        -0.1791 
     42 N         -76.0608   28.4771  -78.8757 N.am      6 UNK        -0.4762 
     43 C         -76.2548   28.6503  -77.5600 C.2       6 UNK         0.5007 
     44 O         -75.3410   28.7359  -76.7379 O.2       6 UNK        -0.5032 
     45 CA        -77.7248   28.6681  -77.0809 C.3       5 UNK         0.0783 
     46 C46       -78.4670   29.9696  -77.4888 C.3       11 UNK        -0.0857 
     47 S47       -77.6577   31.5370  -77.0075 S.3       11 UNK        -0.2512 
     48 C48       -78.8016   32.2056  -75.7605 C.3       11 UNK         0.0225 
     49 N         -78.4882   27.4952  -77.5390 N.am      5 UNK        -0.4615 
     50 C         -78.1217   26.2105  -77.4407 C.2       4 UNK         0.5053 
     51 O         -77.0402   25.8365  -76.9863 O.2       4 UNK        -0.5105 
     52 CA        -79.0997   25.1700  -78.0142 C.3       4 UNK         0.0263 
     53 CB        -78.8934   25.0324  -79.5319 C.3       4 UNK        -0.1981 
     54 N         -78.9105   23.8576  -77.3901 N.am      4 UNK        -0.4224 
     55 C         -79.2143   23.5777  -76.1161 C.2       3 UNK         0.4895 
     56 O         -79.8324   24.3517  -75.3811 O.2       3 UNK        -0.5091 
     57 CA        -78.7252   22.2162  -75.5878 C.3       3 UNK         0.0250 
     58 CB        -77.1883   22.1238  -75.6445 C.3       3 UNK        -0.1996 
     59 N         -79.1430   22.0177  -74.2007 N.am      3 UNK        -0.4254 
     60 C         -80.2941   21.4523  -73.8085 C.2       2 UNK         0.5004 
     61 O         -81.0972   20.9248  -74.5795 O.2       2 UNK        -0.5226 
     62 CA        -80.6088   21.4802  -72.2988 C.3       2 UNK         0.0269 
     63 CB        -80.1596   20.1721  -71.6280 C.3       2 UNK        -0.1926 
     64 N         -79.9606   22.6106  -71.6307 N.am      2 UNK        -0.4687 
     65 C         -80.3696   23.8820  -71.7346 C.2       1 UNK         0.5165 
     66 O         -81.4857   24.1901  -72.1562 O.2       1 UNK        -0.5079 
     67 H67       -75.6946   22.5484  -70.3329 H         1 UNK         0.0900 
     68 H68       -75.9291   24.0791  -69.4839 H         1 UNK         0.0900 
     69 H69       -75.0172   24.0390  -70.9943 H         1 UNK         0.0900 
     70 H70       -77.9867   24.8645  -69.7531 H         1 UNK         0.2959 
     71 H71       -79.9083   25.5620  -70.5371 H         1 UNK         0.1079 
     72 H72       -78.6267   25.4596  -73.3130 H         1 UNK         0.0837 
     73 H73       -80.0961   26.2983  -72.9404 H         1 UNK         0.0837 
     74 H74       -80.2451   28.5051  -72.6933 H         1 UNK         0.0685 
     75 H75       -79.7691   28.9261  -71.0661 H         1 UNK         0.0685 
     76 H76       -79.7540   29.9697  -74.5047 H         1 UNK         0.1434 
     77 H77       -77.0968   33.2888  -73.9431 H         1 UNK         0.1329 
     78 H78       -77.6363   30.4201  -70.8021 H         1 UNK         0.1335 
     79 H79       -76.4248   32.5065  -70.3644 H         1 UNK         0.0680 
     80 H80       -76.4204   33.7775  -71.5601 H         1 UNK         0.0680 
     81 H81       -74.3265   30.9140  -69.9500 H         1 UNK         0.1032 
     82 H82       -75.1746   30.0570  -71.2135 H         1 UNK         0.1032 
     83 H83       -72.2036   30.7340  -71.3323 H         1 UNK         0.0461 
     84 H84       -72.3741   27.4098  -71.8980 H         1 UNK         0.3453 
     85 H85       -72.1212   26.9148  -70.2432 H         1 UNK         0.3453 
     86 H86       -73.9482   29.3463  -73.2305 H         1 UNK         0.2984 
     87 H87       -72.6958   29.7316  -75.6353 H         1 UNK         0.0554 
     88 H88       -71.1496   28.1648  -76.8147 H         1 UNK         0.0847 
     89 H89       -70.4061   27.7263  -75.2778 H         1 UNK         0.0847 
     90 H90       -70.2577   29.3662  -75.8957 H         1 UNK         0.0847 
     91 H91       -73.9817   27.9410  -75.7309 H         1 UNK         0.3141 
     92 H92       -73.8976   24.6700  -74.2436 H         1 UNK         0.0743 
     93 H93       -75.4133   26.1481  -72.9262 H         1 UNK         0.0784 
     94 H94       -75.9328   26.9617  -74.3980 H         1 UNK         0.0784 
     95 H95       -76.3080   25.2615  -74.1498 H         1 UNK         0.0784 
     96 H96       -75.3573   25.6961  -76.4632 H         1 UNK         0.3213 
     97 H97       -73.0772   24.6524  -79.0226 H         1 UNK         0.0855 
     98 H98       -75.8769   23.7500  -78.1618 H         1 UNK         0.0814 
     99 H99       -74.4915   22.6949  -78.3950 H         1 UNK         0.0814 
    100 H100      -75.1705   23.5601  -79.7645 H         1 UNK         0.0814 
    101 H101      -75.6094   26.1323  -78.7655 H         1 UNK         0.3105 
    102 H102      -74.1743   29.2958  -79.1787 H         1 UNK         0.0547 
    103 H103      -75.5105   27.7264  -81.4500 H         1 UNK         0.0837 
    104 H104      -75.4299   29.4837  -81.3104 H         1 UNK         0.0837 
    105 H105      -73.9627   28.5526  -81.5527 H         1 UNK         0.0837 
    106 H106      -76.8689   28.3942  -79.4758 H         1 UNK         0.3020 
    107 H107      -77.6961   28.6213  -75.9897 H         1 UNK         0.1245 
    108 H108      -79.4781   29.9514  -77.0804 H         1 UNK         0.0781 
    109 H109      -78.5958   29.9995  -78.5723 H         1 UNK         0.0781 
    110 H110      -78.7268   33.2942  -75.7730 H         1 UNK         0.0836 
    111 H111      -79.8358   31.9788  -76.0236 H         1 UNK         0.0836 
    112 H112      -79.3885   27.6967  -77.9492 H         1 UNK         0.3022 
    113 H113      -80.1220   25.5020  -77.8206 H         1 UNK         0.0747 
    114 H114      -79.0605   25.9828  -80.0405 H         1 UNK         0.0793 
    115 H115      -79.5899   24.3125  -79.9625 H         1 UNK         0.0793 
    116 H116      -77.8814   24.7062  -79.7759 H         1 UNK         0.0793 
    117 H117      -78.3917   23.1771  -77.9244 H         1 UNK         0.3047 
    118 H118      -79.1502   21.4293  -76.2144 H         1 UNK         0.0822 
    119 H119      -76.8278   22.1058  -76.6725 H         1 UNK         0.0807 
    120 H120      -76.8273   21.2131  -75.1662 H         1 UNK         0.0807 
    121 H121      -76.7143   22.9708  -75.1455 H         1 UNK         0.0807 
    122 H122      -78.5599   22.4722  -73.5024 H         1 UNK         0.2946 
    123 H123      -81.6917   21.5735  -72.1871 H         1 UNK         0.1144 
    124 H124      -80.6422   19.3110  -72.0925 H         1 UNK         0.0793 
    125 H125      -80.4224   20.1584  -70.5701 H         1 UNK         0.0793 
    126 H126      -79.0817   20.0254  -71.7092 H         1 UNK         0.0793 
    127 H127      -79.0215   22.4594  -71.2892 H         1 UNK         0.2896 
@<TRIPOS>BOND
     1    1    2 1    
     2    1   67 1    
     3    1   68 1    
     4    1   69 1    
     5    2    3 2    
     6    2    4 am   BACKBONE|DICT|INTERRES
     7    4    5 1    
     8    4   70 1    
     9    5    6 1    
    10    5   65 1    
    11    5   71 1    
    12    6    7 1    
    13    6   72 1    
    14    6   73 1    
    15    7    8 1    
    16    8    9 1    
    17    8   74 1    
    18    8   75 1    
    19    9   10 ar   
    20    9   14 ar   
    21   10   11 ar   
    22   10   76 1    
    23   11   12 ar   
    24   11   48 1    
    25   12   13 ar   
    26   12   77 1    
    27   13   14 ar   
    28   13   15 1    
    29   14   78 1    
    30   15   16 1    
    31   15   79 1    
    32   15   80 1    
    33   16   17 1    
    34   17   18 1    
    35   17   81 1    
    36   17   82 1    
    37   18   19 1    
    38   18   22 1    
    39   18   83 1    
    40   19   20 am   BACKBONE|DICT|INTERRES
    41   19   21 2    
    42   20   84 1    
    43   20   85 1    
    44   22   23 am   BACKBONE|DICT|INTERRES
    45   22   86 1    
    46   23   24 2    
    47   23   25 1    
    48   25   26 1    
    49   25   27 1    
    50   25   87 1    
    51   26   88 1    
    52   26   89 1    
    53   26   90 1    
    54   27   28 am   BACKBONE|DICT|INTERRES
    55   27   91 1    
    56   28   29 2    
    57   28   30 1    
    58   30   31 1    
    59   30   32 1    
    60   30   92 1    
    61   31   93 1    
    62   31   94 1    
    63   31   95 1    
    64   32   33 am   BACKBONE|DICT|INTERRES
    65   32   96 1    
    66   33   34 2    
    67   33   35 1    
    68   35   36 1    
    69   35   37 1    
    70   35   97 1    
    71   36   98 1    
    72   36   99 1    
    73   36  100 1    
    74   37   38 am   BACKBONE|DICT|INTERRES
    75   37  101 1    
    76   38   39 2    
    77   38   40 1    
    78   40   41 1    
    79   40   42 1    
    80   40  102 1    
    81   41  103 1    
    82   41  104 1    
    83   41  105 1    
    84   42   43 am   BACKBONE|DICT|INTERRES
    85   42  106 1    
    86   43   44 2    
    87   43   45 1    
    88   45   46 1    
    89   45   49 1    
    90   45  107 1    
    91   46   47 1    
    92   46  108 1    
    93   46  109 1    
    94   47   48 1    
    95   48  110 1    
    96   48  111 1    
    97   49   50 am   BACKBONE|DICT|INTERRES
    98   49  112 1    
    99   50   51 2    
   100   50   52 1    
   101   52   53 1    
   102   52   54 1    
   103   52  113 1    
   104   53  114 1    
   105   53  115 1    
   106   53  116 1    
   107   54   55 am   BACKBONE|DICT|INTERRES
   108   54  117 1    
   109   55   56 2    
   110   55   57 1    
   111   57   58 1    
   112   57   59 1    
   113   57  118 1    
   114   58  119 1    
   115   58  120 1    
   116   58  121 1    
   117   59   60 am   BACKBONE|DICT|INTERRES
   118   59  122 1    
   119   60   61 2    
   120   60   62 1    
   121   62   63 1    
   122   62   64 1    
   123   62  123 1    
   124   63  124 1    
   125   63  125 1    
   126   63  126 1    
   127   64   65 am   BACKBONE|DICT|INTERRES
   128   64  127 1    
   129   65   66 2    
@<TRIPOS>SUBSTRUCTURE
     1 UNK         1 GROUP             0       ****    0 ROOT    
