@<TRIPOS>MOLECULE
3R135
127   129    1
SMALL
USER_CHARGES


@<TRIPOS>ATOM
      1 CA        -82.9806   27.0507  -75.3021 C.3       0 UNK        -0.1998 
      2 C         -81.7024   26.6175  -74.6014 C.2       0 UNK         0.4909 
      3 O         -80.6919   26.3930  -75.2623 O.2       0 UNK        -0.5240 
      4 N         -81.7357   26.5028  -73.2685 N.am      1 UNK        -0.4739 
      5 CA        -80.6089   26.0632  -72.4395 C.3       1 UNK         0.0864 
      6 C6        -80.9087   26.3266  -70.9442 C.3       11 UNK        -0.0881 
      7 S7        -79.4090   26.3613  -69.9070 S.3       11 UNK        -0.2682 
      8 C8        -79.1755   28.1475  -69.6473 C.3       11 UNK         0.0289 
      9 C9        -78.4282   28.7956  -70.8034 C.ar      11 UNK        -0.0687 
     10 C10       -79.1167   29.4594  -71.8239 C.ar      11 UNK        -0.0823 
     11 C11       -78.4159   30.0990  -72.8530 C.ar      11 UNK        -0.0830 
     12 C12       -77.0175   30.0523  -72.8643 C.ar      11 UNK        -0.1021 
     13 C13       -76.3182   29.3945  -71.8465 C.ar      11 UNK        -0.0753 
     14 C14       -77.0318   28.7647  -70.8237 C.ar      11 UNK        -0.0933 
     15 C15       -74.7953   29.3534  -71.8348 C.3       11 UNK         0.0166 
     16 S16       -74.0414   31.0116  -71.8494 S.3       11 UNK        -0.2615 
     17 C17       -73.4866   31.1154  -73.5872 C.3       11 UNK        -0.0865 
     18 CA        -71.9945   30.7435  -73.8422 C.3       10 UNK         0.0862 
     19 C         -70.9650   31.8083  -73.3488 C.2       10 UNK         0.5551 
     20 N         -69.7167   31.4427  -73.0851 N.am      10 UNK        -0.7319 
     21 O         -71.2817   32.9918  -73.2525 O.2       10 UNK        -0.5018 
     22 N         -71.6862   29.3235  -73.5707 N.am      10 UNK        -0.4509 
     23 C         -71.3526   28.7377  -72.4119 C.2       10 UNK         0.4899 
     24 O         -71.2332   29.3303  -71.3393 O.2       10 UNK        -0.4839 
     25 CA        -71.1086   27.2145  -72.4713 C.3       9 UNK         0.0222 
     26 CB        -70.5075   26.6622  -71.1645 C.3       9 UNK        -0.1966 
     27 N         -72.3223   26.4540  -72.7894 N.am      9 UNK        -0.4218 
     28 C         -72.8950   26.3770  -73.9974 C.2       9 UNK         0.5020 
     29 O         -72.4797   26.9931  -74.9831 O.2       9 UNK        -0.5274 
     30 CA        -74.1454   25.4795  -74.1021 C.3       8 UNK         0.0270 
     31 CB        -75.3785   26.1922  -73.5200 C.3       8 UNK        -0.1976 
     32 N         -74.4443   25.1147  -75.4853 N.am      8 UNK        -0.4313 
     33 C         -73.6737   24.3742  -76.2928 C.2       8 UNK         0.5041 
     34 O         -72.6756   23.7542  -75.9206 O.2       8 UNK        -0.5577 
     35 CA        -74.0714   24.3514  -77.7774 C.3       7 UNK         0.0284 
     36 CB        -75.1232   23.2623  -78.0496 C.3       7 UNK        -0.1958 
     37 N         -74.5823   25.6595  -78.2021 N.am      7 UNK        -0.4454 
     38 C         -73.8095   26.6789  -78.6073 C.2       7 UNK         0.5089 
     39 O         -72.5928   26.5868  -78.7741 O.2       7 UNK        -0.5125 
     40 CA        -74.4976   28.0268  -78.9031 C.3       6 UNK         0.0408 
     41 CB        -74.7186   28.1895  -80.4158 C.3       6 UNK        -0.1791 
     42 N         -75.7815   28.1834  -78.2157 N.am      6 UNK        -0.4762 
     43 C         -75.9300   28.5684  -76.9384 C.2       6 UNK         0.5007 
     44 O         -75.0005   28.9392  -76.2237 O.2       6 UNK        -0.5032 
     45 CA        -77.3569   28.5055  -76.3475 C.3       5 UNK         0.0783 
     46 C46       -78.0000   29.9107  -76.3030 C.3       11 UNK        -0.0857 
     47 S47       -79.5777   29.9082  -75.3834 S.3       11 UNK        -0.2512 
     48 C48       -79.1698   30.8966  -73.9099 C.3       11 UNK         0.0225 
     49 N         -78.2169   27.5314  -77.0352 N.am      5 UNK        -0.4615 
     50 C         -77.9994   26.2128  -77.0479 C.2       4 UNK         0.5053 
     51 O         -77.0173   25.6847  -76.5248 O.2       4 UNK        -0.5105 
     52 CA        -78.9836   25.3513  -77.8391 C.3       4 UNK         0.0263 
     53 CB        -78.5152   25.1834  -79.2961 C.3       4 UNK        -0.1981 
     54 N         -79.0706   24.0522  -77.1845 N.am      4 UNK        -0.4224 
     55 C         -80.1075   23.2136  -77.2480 C.2       3 UNK         0.4895 
     56 O         -81.0958   23.3996  -77.9595 O.2       3 UNK        -0.5091 
     57 CA        -80.0566   21.9598  -76.3573 C.3       3 UNK         0.0250 
     58 CB        -79.1873   20.8536  -76.9888 C.3       3 UNK        -0.1996 
     59 N         -79.6807   22.2361  -74.9625 N.am      3 UNK        -0.4254 
     60 C         -78.4916   22.6012  -74.4637 C.2       2 UNK         0.5004 
     61 O         -77.4766   22.7563  -75.1437 O.2       2 UNK        -0.5226 
     62 CA        -78.4575   22.8956  -72.9534 C.3       2 UNK         0.0269 
     63 CB        -77.0418   22.7635  -72.3615 C.3       2 UNK        -0.1926 
     64 N         -78.9735   24.2387  -72.6785 N.am      2 UNK        -0.4687 
     65 C         -80.2695   24.5784  -72.7015 C.2       1 UNK         0.5165 
     66 O         -81.1798   23.7661  -72.8942 O.2       1 UNK        -0.5079 
     67 H67       -83.8012   27.1987  -74.6005 H         1 UNK         0.0900 
     68 H68       -83.2839   26.2955  -76.0267 H         1 UNK         0.0900 
     69 H69       -82.8142   27.9872  -75.8340 H         1 UNK         0.0900 
     70 H70       -82.6050   26.6635  -72.7806 H         1 UNK         0.2959 
     71 H71       -79.7484   26.6680  -72.7367 H         1 UNK         0.1079 
     72 H72       -81.4273   27.2795  -70.8294 H         1 UNK         0.0837 
     73 H73       -81.5943   25.5764  -70.5444 H         1 UNK         0.0837 
     74 H74       -80.1351   28.6385  -69.4794 H         1 UNK         0.0685 
     75 H75       -78.6069   28.2892  -68.7269 H         1 UNK         0.0685 
     76 H76       -80.1974   29.4986  -71.8047 H         1 UNK         0.1434 
     77 H77       -76.4693   30.5525  -73.6495 H         1 UNK         0.1329 
     78 H78       -76.5010   28.2553  -70.0309 H         1 UNK         0.1335 
     79 H79       -74.4320   28.8313  -70.9484 H         1 UNK         0.0680 
     80 H80       -74.4422   28.7740  -72.6862 H         1 UNK         0.0680 
     81 H81       -73.6853   32.1291  -73.9394 H         1 UNK         0.1032 
     82 H82       -74.1221   30.4821  -74.2066 H         1 UNK         0.1032 
     83 H83       -71.8797   30.8064  -74.9249 H         1 UNK         0.0461 
     84 H84       -69.4446   30.4759  -73.1577 H         1 UNK         0.3453 
     85 H85       -69.0509   32.1359  -72.7822 H         1 UNK         0.3453 
     86 H86       -71.8059   28.6976  -74.3632 H         1 UNK         0.2984 
     87 H87       -70.3779   27.0387  -73.2638 H         1 UNK         0.0554 
     88 H88       -70.2643   25.6033  -71.2545 H         1 UNK         0.0847 
     89 H89       -71.1902   26.7803  -70.3220 H         1 UNK         0.0847 
     90 H90       -69.5831   27.1824  -70.9093 H         1 UNK         0.0847 
     91 H91       -72.7423   25.9460  -72.0242 H         1 UNK         0.3141 
     92 H92       -73.9655   24.5576  -73.5456 H         1 UNK         0.0743 
     93 H93       -75.5311   27.1643  -73.9885 H         1 UNK         0.0784 
     94 H94       -76.2885   25.6136  -73.6760 H         1 UNK         0.0784 
     95 H95       -75.2751   26.3543  -72.4467 H         1 UNK         0.0784 
     96 H96       -75.2975   25.5047  -75.8776 H         1 UNK         0.3213 
     97 H97       -73.1795   24.1083  -78.3592 H         1 UNK         0.0855 
     98 H98       -76.0364   23.4208  -77.4760 H         1 UNK         0.0814 
     99 H99       -74.7400   22.2786  -77.7755 H         1 UNK         0.0814 
    100 H100      -75.3910   23.2229  -79.1054 H         1 UNK         0.0814 
    101 H101      -75.5613   25.8369  -78.0204 H         1 UNK         0.3105 
    102 H102      -73.8229   28.8198  -78.5731 H         1 UNK         0.0547 
    103 H103      -73.7753   28.1101  -80.9580 H         1 UNK         0.0837 
    104 H104      -75.3868   27.4243  -80.8129 H         1 UNK         0.0837 
    105 H105      -75.1443   29.1647  -80.6526 H         1 UNK         0.0837 
    106 H106      -76.6102   27.9260  -78.7318 H         1 UNK         0.3020 
    107 H107      -77.2456   28.1595  -75.3174 H         1 UNK         0.1245 
    108 H108      -78.1941   30.2735  -77.3140 H         1 UNK         0.0781 
    109 H109      -77.3202   30.6358  -75.8530 H         1 UNK         0.0781 
    110 H110      -80.1005   31.2755  -73.4847 H         1 UNK         0.0836 
    111 H111      -78.5992   31.7802  -74.1997 H         1 UNK         0.0836 
    112 H112      -79.0603   27.8973  -77.4529 H         1 UNK         0.3022 
    113 H113      -79.9649   25.8303  -77.8203 H         1 UNK         0.0747 
    114 H114      -79.2189   24.5813  -79.8711 H         1 UNK         0.0793 
    115 H115      -78.4340   26.1487  -79.7969 H         1 UNK         0.0793 
    116 H116      -77.5398   24.6994  -79.3533 H         1 UNK         0.0793 
    117 H117      -78.3077   23.8372  -76.5440 H         1 UNK         0.3047 
    118 H118      -81.0769   21.5759  -76.3069 H         1 UNK         0.0822 
    119 H119      -79.1911   19.9496  -76.3799 H         1 UNK         0.0807 
    120 H120      -78.1510   21.1671  -77.1185 H         1 UNK         0.0807 
    121 H121      -79.5652   20.5820  -77.9753 H         1 UNK         0.0807 
    122 H122      -80.4598   22.2606  -74.3139 H         1 UNK         0.2946 
    123 H123      -79.0927   22.1616  -72.4514 H         1 UNK         0.1144 
    124 H124      -77.0408   22.9505  -71.2875 H         1 UNK         0.0793 
    125 H125      -76.3362   23.4533  -72.8231 H         1 UNK         0.0793 
    126 H126      -76.6523   21.7564  -72.5153 H         1 UNK         0.0793 
    127 H127      -78.2859   24.9573  -72.5056 H         1 UNK         0.2896 
@<TRIPOS>BOND
     1    1    2 1    
     2    1   67 1    
     3    1   68 1    
     4    1   69 1    
     5    2    3 2    
     6    2    4 am   BACKBONE|DICT|INTERRES
     7    4    5 1    
     8    4   70 1    
     9    5    6 1    
    10    5   65 1    
    11    5   71 1    
    12    6    7 1    
    13    6   72 1    
    14    6   73 1    
    15    7    8 1    
    16    8    9 1    
    17    8   74 1    
    18    8   75 1    
    19    9   10 ar   
    20    9   14 ar   
    21   10   11 ar   
    22   10   76 1    
    23   11   12 ar   
    24   11   48 1    
    25   12   13 ar   
    26   12   77 1    
    27   13   14 ar   
    28   13   15 1    
    29   14   78 1    
    30   15   16 1    
    31   15   79 1    
    32   15   80 1    
    33   16   17 1    
    34   17   18 1    
    35   17   81 1    
    36   17   82 1    
    37   18   19 1    
    38   18   22 1    
    39   18   83 1    
    40   19   20 am   BACKBONE|DICT|INTERRES
    41   19   21 2    
    42   20   84 1    
    43   20   85 1    
    44   22   23 am   BACKBONE|DICT|INTERRES
    45   22   86 1    
    46   23   24 2    
    47   23   25 1    
    48   25   26 1    
    49   25   27 1    
    50   25   87 1    
    51   26   88 1    
    52   26   89 1    
    53   26   90 1    
    54   27   28 am   BACKBONE|DICT|INTERRES
    55   27   91 1    
    56   28   29 2    
    57   28   30 1    
    58   30   31 1    
    59   30   32 1    
    60   30   92 1    
    61   31   93 1    
    62   31   94 1    
    63   31   95 1    
    64   32   33 am   BACKBONE|DICT|INTERRES
    65   32   96 1    
    66   33   34 2    
    67   33   35 1    
    68   35   36 1    
    69   35   37 1    
    70   35   97 1    
    71   36   98 1    
    72   36   99 1    
    73   36  100 1    
    74   37   38 am   BACKBONE|DICT|INTERRES
    75   37  101 1    
    76   38   39 2    
    77   38   40 1    
    78   40   41 1    
    79   40   42 1    
    80   40  102 1    
    81   41  103 1    
    82   41  104 1    
    83   41  105 1    
    84   42   43 am   BACKBONE|DICT|INTERRES
    85   42  106 1    
    86   43   44 2    
    87   43   45 1    
    88   45   46 1    
    89   45   49 1    
    90   45  107 1    
    91   46   47 1    
    92   46  108 1    
    93   46  109 1    
    94   47   48 1    
    95   48  110 1    
    96   48  111 1    
    97   49   50 am   BACKBONE|DICT|INTERRES
    98   49  112 1    
    99   50   51 2    
   100   50   52 1    
   101   52   53 1    
   102   52   54 1    
   103   52  113 1    
   104   53  114 1    
   105   53  115 1    
   106   53  116 1    
   107   54   55 am   BACKBONE|DICT|INTERRES
   108   54  117 1    
   109   55   56 2    
   110   55   57 1    
   111   57   58 1    
   112   57   59 1    
   113   57  118 1    
   114   58  119 1    
   115   58  120 1    
   116   58  121 1    
   117   59   60 am   BACKBONE|DICT|INTERRES
   118   59  122 1    
   119   60   61 2    
   120   60   62 1    
   121   62   63 1    
   122   62   64 1    
   123   62  123 1    
   124   63  124 1    
   125   63  125 1    
   126   63  126 1    
   127   64   65 am   BACKBONE|DICT|INTERRES
   128   64  127 1    
   129   65   66 2    
@<TRIPOS>SUBSTRUCTURE
     1 UNK         1 GROUP             0       ****    0 ROOT    
