@<TRIPOS>MOLECULE
3R135
127   129    1
SMALL
USER_CHARGES


@<TRIPOS>ATOM
      1 CA        -78.8474   21.6029  -70.6840 C.3       0 UNK        -0.1998 
      2 C         -79.3889   22.6528  -71.6415 C.2       0 UNK         0.4909 
      3 O         -79.1595   22.5551  -72.8465 O.2       0 UNK        -0.5240 
      4 N         -80.1351   23.6374  -71.1182 N.am      1 UNK        -0.4739 
      5 CA        -80.6861   24.8158  -71.8191 C.3       1 UNK         0.0864 
      6 C6        -79.5848   25.7350  -72.4252 C.3       11 UNK        -0.0881 
      7 S7        -78.3909   26.2983  -71.1651 S.3       11 UNK        -0.2682 
      8 C8        -79.0388   27.9455  -70.7472 C.3       11 UNK         0.0289 
      9 C9        -78.1886   29.0558  -71.3462 C.ar      11 UNK        -0.0687 
     10 C10       -78.6019   29.7413  -72.4929 C.ar      11 UNK        -0.0823 
     11 C11       -77.8461   30.8088  -72.9941 C.ar      11 UNK        -0.0830 
     12 C12       -76.6649   31.1816  -72.3410 C.ar      11 UNK        -0.1021 
     13 C13       -76.2456   30.5040  -71.1915 C.ar      11 UNK        -0.0753 
     14 C14       -77.0063   29.4370  -70.7076 C.ar      11 UNK        -0.0933 
     15 C15       -75.0127   30.9552  -70.4219 C.3       11 UNK         0.0166 
     16 S16       -73.4992   30.1318  -71.0058 S.3       11 UNK        -0.2615 
     17 C17       -72.8335   31.3476  -72.1962 C.3       11 UNK        -0.0865 
     18 CA        -73.0296   30.9312  -73.6816 C.3       10 UNK         0.0862 
     19 C         -72.5997   32.0459  -74.6820 C.2       10 UNK         0.5551 
     20 N         -72.0863   31.7126  -75.8602 N.am      10 UNK        -0.7319 
     21 O         -72.7621   33.2314  -74.4034 O.2       10 UNK        -0.5018 
     22 N         -72.5000   29.5968  -74.0087 N.am      10 UNK        -0.4509 
     23 C         -71.2445   29.1541  -73.8623 C.2       10 UNK         0.4899 
     24 O         -70.3348   29.8147  -73.3590 O.2       10 UNK        -0.4839 
     25 CA        -70.9450   27.7473  -74.4202 C.3       9 UNK         0.0222 
     26 CB        -69.7500   27.0602  -73.7252 C.3       9 UNK        -0.1966 
     27 N         -72.1244   26.8730  -74.4664 N.am      9 UNK        -0.4218 
     28 C         -72.8027   26.3316  -73.4415 C.2       9 UNK         0.5020 
     29 O         -72.4736   26.4468  -72.2605 O.2       9 UNK        -0.5274 
     30 CA        -74.0764   25.5256  -73.7812 C.3       8 UNK         0.0270 
     31 CB        -75.3287   26.2661  -73.2812 C.3       8 UNK        -0.1976 
     32 N         -74.2333   25.2356  -75.2112 N.am      8 UNK        -0.4313 
     33 C         -73.4913   24.3616  -75.9064 C.2       8 UNK         0.5041 
     34 O         -72.6440   23.6258  -75.4001 O.2       8 UNK        -0.5577 
     35 CA        -73.6928   24.3438  -77.4308 C.3       7 UNK         0.0284 
     36 CB        -74.8130   23.3684  -77.8281 C.3       7 UNK        -0.1958 
     37 N         -73.9837   25.6812  -77.9577 N.am      7 UNK        -0.4454 
     38 C         -73.0669   26.6481  -78.1127 C.2       7 UNK         0.5089 
     39 O         -71.8694   26.4981  -77.8727 O.2       7 UNK        -0.5125 
     40 CA        -73.5710   28.0281  -78.5759 C.3       6 UNK         0.0408 
     41 CB        -73.6300   28.0917  -80.1100 C.3       6 UNK        -0.1791 
     42 N         -74.8800   28.3836  -78.0213 N.am      6 UNK        -0.4762 
     43 C         -75.1291   28.5770  -76.7171 C.2       6 UNK         0.5007 
     44 O         -74.2625   28.5267  -75.8483 O.2       6 UNK        -0.5032 
     45 CA        -76.5982   28.7953  -76.3032 C.3       5 UNK         0.0783 
     46 C46       -76.9284   30.3052  -76.2594 C.3       11 UNK        -0.0857 
     47 S47       -78.6291   30.6186  -75.6801 S.3       11 UNK        -0.2512 
     48 C48       -78.3522   31.6195  -74.1826 C.3       11 UNK         0.0225 
     49 N         -77.5329   28.0330  -77.1438 N.am      5 UNK        -0.4615 
     50 C         -77.5281   26.7000  -77.2665 C.2       4 UNK         0.5053 
     51 O         -76.7035   25.9683  -76.7131 O.2       4 UNK        -0.5105 
     52 CA        -78.5609   26.0977  -78.2336 C.3       4 UNK         0.0263 
     53 CB        -77.9980   26.0900  -79.6647 C.3       4 UNK        -0.1981 
     54 N         -78.9339   24.7303  -77.8642 N.am      4 UNK        -0.4224 
     55 C         -79.5724   24.3993  -76.7350 C.2       3 UNK         0.4895 
     56 O         -79.9742   25.2253  -75.9116 O.2       3 UNK        -0.5091 
     57 CA        -79.7709   22.8928  -76.4891 C.3       3 UNK         0.0250 
     58 CB        -78.4316   22.2195  -76.1411 C.3       3 UNK        -0.1996 
     59 N         -80.7100   22.6659  -75.3913 N.am      3 UNK        -0.4254 
     60 C         -82.0462   22.7221  -75.5032 C.2       2 UNK         0.5004 
     61 O         -82.6400   22.8072  -76.5793 O.2       2 UNK        -0.5226 
     62 CA        -82.8633   22.6906  -74.1962 C.3       2 UNK         0.0269 
     63 CB        -83.3392   21.2616  -73.8888 C.3       2 UNK        -0.1926 
     64 N         -82.0966   23.1986  -73.0568 N.am      2 UNK        -0.4687 
     65 C         -81.7768   24.4871  -72.8680 C.2       1 UNK         0.5165 
     66 O         -82.3169   25.4064  -73.4851 O.2       1 UNK        -0.5079 
     67 H67       -79.2134   20.6154  -70.9633 H         1 UNK         0.0900 
     68 H68       -77.7587   21.5875  -70.7258 H         1 UNK         0.0900 
     69 H69       -79.1444   21.7975  -69.6537 H         1 UNK         0.0900 
     70 H70       -80.3047   23.6308  -70.1217 H         1 UNK         0.2959 
     71 H71       -81.2052   25.3946  -71.0535 H         1 UNK         0.1079 
     72 H72       -80.0203   26.6068  -72.9172 H         1 UNK         0.0837 
     73 H73       -79.0327   25.2083  -73.2058 H         1 UNK         0.0837 
     74 H74       -80.0797   28.0417  -71.0593 H         1 UNK         0.0685 
     75 H75       -79.0461   28.0463  -69.6608 H         1 UNK         0.0685 
     76 H76       -79.5260   29.4636  -72.9814 H         1 UNK         0.1434 
     77 H77       -76.0880   32.0214  -72.7037 H         1 UNK         0.1329 
     78 H78       -76.6915   28.9159  -69.8135 H         1 UNK         0.1335 
     79 H79       -74.9108   32.0400  -70.4672 H         1 UNK         0.0680 
     80 H80       -75.1385   30.7197  -69.3639 H         1 UNK         0.0680 
     81 H81       -71.7744   31.4905  -71.9786 H         1 UNK         0.1032 
     82 H82       -73.2956   32.3182  -72.0117 H         1 UNK         0.1032 
     83 H83       -74.1043   30.8380  -73.8391 H         1 UNK         0.0461 
     84 H84       -71.8191   32.4374  -76.5072 H         1 UNK         0.3453 
     85 H85       -71.9692   30.7432  -76.1059 H         1 UNK         0.3453 
     86 H86       -73.1541   29.0035  -74.5150 H         1 UNK         0.2984 
     87 H87       -70.6630   27.9013  -75.4626 H         1 UNK         0.0554 
     88 H88       -69.5665   26.0684  -74.1383 H         1 UNK         0.0847 
     89 H89       -69.9102   26.9542  -72.6520 H         1 UNK         0.0847 
     90 H90       -68.8356   27.6395  -73.8580 H         1 UNK         0.0847 
     91 H91       -72.5130   26.7316  -75.3890 H         1 UNK         0.3141 
     92 H92       -74.0105   24.5732  -73.2513 H         1 UNK         0.0743 
     93 H93       -75.3088   26.3739  -72.1958 H         1 UNK         0.0784 
     94 H94       -76.2434   25.7298  -73.5359 H         1 UNK         0.0784 
     95 H95       -75.3979   27.2703  -73.6975 H         1 UNK         0.0784 
     96 H96       -74.9661   25.7367  -75.7049 H         1 UNK         0.3213 
     97 H97       -72.7635   23.9906  -77.8838 H         1 UNK         0.0855 
     98 H98       -75.7705   23.6464  -77.3890 H         1 UNK         0.0814 
     99 H99       -74.5840   22.3573  -77.4890 H         1 UNK         0.0814 
    100 H100      -74.9385   23.3264  -78.9100 H         1 UNK         0.0814 
    101 H101      -74.9588   25.9091  -78.0973 H         1 UNK         0.3105 
    102 H102      -72.8512   28.7743  -78.2326 H         1 UNK         0.0547 
    103 H103      -72.6597   27.8517  -80.5472 H         1 UNK         0.0837 
    104 H104      -74.3543   27.3857  -80.5184 H         1 UNK         0.0837 
    105 H105      -73.9002   29.0893  -80.4562 H         1 UNK         0.0837 
    106 H106      -75.6519   28.4443  -78.6694 H         1 UNK         0.3020 
    107 H107      -76.6993   28.4058  -75.2880 H         1 UNK         0.1245 
    108 H108      -76.2250   30.8288  -75.6085 H         1 UNK         0.0781 
    109 H109      -76.8191   30.7538  -77.2486 H         1 UNK         0.0781 
    110 H110      -79.2975   32.0857  -73.9014 H         1 UNK         0.0836 
    111 H111      -77.6725   32.4394  -74.4201 H         1 UNK         0.0836 
    112 H112      -78.2409   28.5728  -77.6207 H         1 UNK         0.3022 
    113 H113      -79.4633   26.7123  -78.2090 H         1 UNK         0.0747 
    114 H114      -78.7273   25.7005  -80.3755 H         1 UNK         0.0793 
    115 H115      -77.0965   25.4803  -79.7418 H         1 UNK         0.0793 
    116 H116      -77.7394   27.0978  -79.9925 H         1 UNK         0.0793 
    117 H117      -78.6120   23.9942  -78.4749 H         1 UNK         0.3047 
    118 H118      -80.1696   22.4385  -77.3988 H         1 UNK         0.0822 
    119 H119      -78.5699   21.1709  -75.8769 H         1 UNK         0.0807 
    120 H120      -77.9390   22.7130  -75.3017 H         1 UNK         0.0807 
    121 H121      -77.7436   22.2493  -76.9860 H         1 UNK         0.0807 
    122 H122      -80.2990   22.6392  -74.4622 H         1 UNK         0.2946 
    123 H123      -83.7402   23.3263  -74.3398 H         1 UNK         0.1144 
    124 H124      -83.9336   20.8639  -74.7126 H         1 UNK         0.0793 
    125 H125      -83.9654   21.2351  -72.9968 H         1 UNK         0.0793 
    126 H126      -82.5013   20.5809  -73.7328 H         1 UNK         0.0793 
    127 H127      -81.6088   22.5153  -72.4954 H         1 UNK         0.2896 
@<TRIPOS>BOND
     1    1    2 1    
     2    1   67 1    
     3    1   68 1    
     4    1   69 1    
     5    2    3 2    
     6    2    4 am   BACKBONE|DICT|INTERRES
     7    4    5 1    
     8    4   70 1    
     9    5    6 1    
    10    5   65 1    
    11    5   71 1    
    12    6    7 1    
    13    6   72 1    
    14    6   73 1    
    15    7    8 1    
    16    8    9 1    
    17    8   74 1    
    18    8   75 1    
    19    9   10 ar   
    20    9   14 ar   
    21   10   11 ar   
    22   10   76 1    
    23   11   12 ar   
    24   11   48 1    
    25   12   13 ar   
    26   12   77 1    
    27   13   14 ar   
    28   13   15 1    
    29   14   78 1    
    30   15   16 1    
    31   15   79 1    
    32   15   80 1    
    33   16   17 1    
    34   17   18 1    
    35   17   81 1    
    36   17   82 1    
    37   18   19 1    
    38   18   22 1    
    39   18   83 1    
    40   19   20 am   BACKBONE|DICT|INTERRES
    41   19   21 2    
    42   20   84 1    
    43   20   85 1    
    44   22   23 am   BACKBONE|DICT|INTERRES
    45   22   86 1    
    46   23   24 2    
    47   23   25 1    
    48   25   26 1    
    49   25   27 1    
    50   25   87 1    
    51   26   88 1    
    52   26   89 1    
    53   26   90 1    
    54   27   28 am   BACKBONE|DICT|INTERRES
    55   27   91 1    
    56   28   29 2    
    57   28   30 1    
    58   30   31 1    
    59   30   32 1    
    60   30   92 1    
    61   31   93 1    
    62   31   94 1    
    63   31   95 1    
    64   32   33 am   BACKBONE|DICT|INTERRES
    65   32   96 1    
    66   33   34 2    
    67   33   35 1    
    68   35   36 1    
    69   35   37 1    
    70   35   97 1    
    71   36   98 1    
    72   36   99 1    
    73   36  100 1    
    74   37   38 am   BACKBONE|DICT|INTERRES
    75   37  101 1    
    76   38   39 2    
    77   38   40 1    
    78   40   41 1    
    79   40   42 1    
    80   40  102 1    
    81   41  103 1    
    82   41  104 1    
    83   41  105 1    
    84   42   43 am   BACKBONE|DICT|INTERRES
    85   42  106 1    
    86   43   44 2    
    87   43   45 1    
    88   45   46 1    
    89   45   49 1    
    90   45  107 1    
    91   46   47 1    
    92   46  108 1    
    93   46  109 1    
    94   47   48 1    
    95   48  110 1    
    96   48  111 1    
    97   49   50 am   BACKBONE|DICT|INTERRES
    98   49  112 1    
    99   50   51 2    
   100   50   52 1    
   101   52   53 1    
   102   52   54 1    
   103   52  113 1    
   104   53  114 1    
   105   53  115 1    
   106   53  116 1    
   107   54   55 am   BACKBONE|DICT|INTERRES
   108   54  117 1    
   109   55   56 2    
   110   55   57 1    
   111   57   58 1    
   112   57   59 1    
   113   57  118 1    
   114   58  119 1    
   115   58  120 1    
   116   58  121 1    
   117   59   60 am   BACKBONE|DICT|INTERRES
   118   59  122 1    
   119   60   61 2    
   120   60   62 1    
   121   62   63 1    
   122   62   64 1    
   123   62  123 1    
   124   63  124 1    
   125   63  125 1    
   126   63  126 1    
   127   64   65 am   BACKBONE|DICT|INTERRES
   128   64  127 1    
   129   65   66 2    
@<TRIPOS>SUBSTRUCTURE
     1 UNK         1 GROUP             0       ****    0 ROOT    
