@<TRIPOS>MOLECULE
3R135
127   129    1
SMALL
USER_CHARGES


@<TRIPOS>ATOM
      1 CA        -80.4614   24.8759  -71.5096 C.3       0 UNK        -0.1998 
      2 C         -80.7931   25.5101  -72.8494 C.2       0 UNK         0.4909 
      3 O         -80.4658   24.9479  -73.8956 O.2       0 UNK        -0.5240 
      4 N         -81.4490   26.6778  -72.8191 N.am      1 UNK        -0.4739 
      5 CA        -81.8892   27.4589  -73.9866 C.3       1 UNK         0.0864 
      6 C6        -80.7164   28.0047  -74.8468 C.3       11 UNK        -0.0881 
      7 S7        -79.5857   29.0776  -73.8968 S.3       11 UNK        -0.2682 
      8 C8        -77.9778   28.6768  -74.6519 C.3       11 UNK         0.0289 
      9 C9        -76.9949   28.1176  -73.6338 C.ar      11 UNK        -0.0687 
     10 C10       -77.1856   26.8461  -73.0832 C.ar      11 UNK        -0.0823 
     11 C11       -76.2513   26.3117  -72.1900 C.ar      11 UNK        -0.0830 
     12 C12       -75.1352   27.0720  -71.8284 C.ar      11 UNK        -0.1021 
     13 C13       -74.9357   28.3479  -72.3632 C.ar      11 UNK        -0.0753 
     14 C14       -75.8673   28.8598  -73.2723 C.ar      11 UNK        -0.0933 
     15 C15       -73.6764   29.1317  -72.0109 C.3       11 UNK         0.0166 
     16 S16       -74.0071   30.8751  -71.5881 S.3       11 UNK        -0.2615 
     17 C17       -72.3084   31.5410  -71.4920 C.3       11 UNK        -0.0865 
     18 CA        -71.8631   32.2676  -72.7912 C.3       10 UNK         0.0862 
     19 C         -70.4818   32.9624  -72.5934 C.2       10 UNK         0.5551 
     20 N         -69.4331   32.6038  -73.3266 N.am      10 UNK        -0.7319 
     21 O         -70.3623   33.8516  -71.7541 O.2       10 UNK        -0.5018 
     22 N         -71.9281   31.3699  -73.9526 N.am      10 UNK        -0.4509 
     23 C         -71.9481   31.7408  -75.2376 C.2       10 UNK         0.4899 
     24 O         -72.0115   32.9117  -75.6149 O.2       10 UNK        -0.4839 
     25 CA        -71.8708   30.5925  -76.2648 C.3       9 UNK         0.0222 
     26 CB        -71.3561   31.0532  -77.6450 C.3       9 UNK        -0.1966 
     27 N         -71.1061   29.4338  -75.7737 N.am      9 UNK        -0.4218 
     28 C         -69.8113   29.4121  -75.4130 C.2       9 UNK         0.5020 
     29 O         -69.0812   30.4032  -75.4729 O.2       9 UNK        -0.5274 
     30 CA        -69.2336   28.1012  -74.8379 C.3       8 UNK         0.0270 
     31 CB        -68.3307   28.3780  -73.6206 C.3       8 UNK        -0.1976 
     32 N         -70.2653   27.1414  -74.4372 N.am      8 UNK        -0.4313 
     33 C         -70.7844   26.1809  -75.2113 C.2       8 UNK         0.5041 
     34 O         -70.4311   25.9719  -76.3726 O.2       8 UNK        -0.5577 
     35 CA        -71.9122   25.3216  -74.6015 C.3       7 UNK         0.0284 
     36 CB        -72.1282   25.5389  -73.0872 C.3       7 UNK        -0.1958 
     37 N         -73.1810   25.4970  -75.3156 N.am      7 UNK        -0.4454 
     38 C         -73.8045   26.6439  -75.6149 C.2       7 UNK         0.5089 
     39 O         -73.3721   27.7553  -75.3100 O.2       7 UNK        -0.5125 
     40 CA        -75.1248   26.5530  -76.4045 C.3       6 UNK         0.0408 
     41 CB        -74.8512   26.3659  -77.9083 C.3       6 UNK        -0.1791 
     42 N         -76.0957   25.5633  -75.9122 N.am      6 UNK        -0.4762 
     43 C         -75.9926   24.2271  -75.8482 C.2       6 UNK         0.5007 
     44 O         -74.9981   23.5940  -76.2084 O.2       6 UNK        -0.5032 
     45 CA        -77.2301   23.4629  -75.3224 C.3       5 UNK         0.0783 
     46 C46       -77.3268   23.2959  -73.7715 C.3       11 UNK        -0.0857 
     47 S47       -75.8464   23.6150  -72.7393 S.3       11 UNK        -0.2512 
     48 C48       -76.4361   24.9177  -71.6066 C.3       11 UNK         0.0225 
     49 N         -78.4888   23.9845  -75.8748 N.am      5 UNK        -0.4615 
     50 C         -78.8238   23.9832  -77.1744 C.2       4 UNK         0.5053 
     51 O         -78.0802   23.5908  -78.0748 O.2       4 UNK        -0.5105 
     52 CA        -80.2470   24.4731  -77.5068 C.3       4 UNK         0.0263 
     53 CB        -80.6397   24.2581  -78.9836 C.3       4 UNK        -0.1981 
     54 N         -81.2502   23.8935  -76.6074 N.am      4 UNK        -0.4224 
     55 C         -81.5301   22.5936  -76.4157 C.2       3 UNK         0.4895 
     56 O         -81.0332   21.6762  -77.0699 O.2       3 UNK        -0.5091 
     57 CA        -82.5094   22.2425  -75.2797 C.3       3 UNK         0.0250 
     58 CB        -81.7516   21.6049  -74.1021 C.3       3 UNK        -0.1996 
     59 N         -83.2523   23.4050  -74.7884 N.am      3 UNK        -0.4254 
     60 C         -84.3653   23.8951  -75.3515 C.2       2 UNK         0.5004 
     61 O         -84.9386   23.3713  -76.3068 O.2       2 UNK        -0.5226 
     62 CA        -84.9252   25.2017  -74.7585 C.3       2 UNK         0.0269 
     63 CB        -86.0144   24.8964  -73.7176 C.3       2 UNK        -0.1926 
     64 N         -83.8982   26.0556  -74.1484 N.am      2 UNK        -0.4687 
     65 C         -82.9193   26.6725  -74.8279 C.2       1 UNK         0.5165 
     66 O         -82.7923   26.5888  -76.0504 O.2       1 UNK        -0.5079 
     67 H67       -79.8049   25.5263  -70.9323 H         1 UNK         0.0900 
     68 H68       -81.3699   24.7005  -70.9340 H         1 UNK         0.0900 
     69 H69       -79.9606   23.9180  -71.6482 H         1 UNK         0.0900 
     70 H70       -81.6729   27.0872  -71.9225 H         1 UNK         0.2959 
     71 H71       -82.4324   28.3205  -73.5946 H         1 UNK         0.1079 
     72 H72       -81.0965   28.5956  -75.6823 H         1 UNK         0.0837 
     73 H73       -80.1636   27.1759  -75.2902 H         1 UNK         0.0837 
     74 H74       -77.5810   29.5860  -75.1062 H         1 UNK         0.0685 
     75 H75       -78.0909   27.9660  -75.4704 H         1 UNK         0.0685 
     76 H76       -78.0549   26.2713  -73.3648 H         1 UNK         0.1434 
     77 H77       -74.4091   26.6594  -71.1415 H         1 UNK         0.1329 
     78 H78       -75.7026   29.8344  -73.7105 H         1 UNK         0.1335 
     79 H79       -73.0019   29.0815  -72.8649 H         1 UNK         0.0680 
     80 H80       -73.1553   28.6656  -71.1732 H         1 UNK         0.0680 
     81 H81       -71.6110   30.7406  -71.2376 H         1 UNK         0.1032 
     82 H82       -72.2845   32.2330  -70.6478 H         1 UNK         0.1032 
     83 H83       -72.5750   33.0749  -72.9734 H         1 UNK         0.0461 
     84 H84       -68.5525   33.0710  -73.1810 H         1 UNK         0.3453 
     85 H85       -69.5070   31.8866  -74.0379 H         1 UNK         0.3453 
     86 H86       -71.8803   30.3841  -73.7523 H         1 UNK         0.2984 
     87 H87       -72.8953   30.2427  -76.3989 H         1 UNK         0.0554 
     88 H88       -72.0094   31.8151  -78.0717 H         1 UNK         0.0847 
     89 H89       -71.3227   30.2247  -78.3524 H         1 UNK         0.0847 
     90 H90       -70.3558   31.4827  -77.5829 H         1 UNK         0.0847 
     91 H91       -71.6630   28.5922  -75.6429 H         1 UNK         0.3141 
     92 H92       -68.6143   27.6590  -75.6211 H         1 UNK         0.0743 
     93 H93       -67.4885   29.0167  -73.8910 H         1 UNK         0.0784 
     94 H94       -68.8745   28.8791  -72.8188 H         1 UNK         0.0784 
     95 H95       -67.9127   27.4550  -73.2183 H         1 UNK         0.0784 
     96 H96       -70.6368   27.2437  -73.5044 H         1 UNK         0.3213 
     97 H97       -71.6164   24.2817  -74.7478 H         1 UNK         0.0855 
     98 H98       -72.4505   26.5543  -72.8600 H         1 UNK         0.0814 
     99 H99       -71.2177   25.3368  -72.5214 H         1 UNK         0.0814 
    100 H100      -72.8940   24.8635  -72.7049 H         1 UNK         0.0814 
    101 H101      -73.6362   24.6455  -75.6396 H         1 UNK         0.3105 
    102 H102      -75.6152   27.5203  -76.2871 H         1 UNK         0.0547 
    103 H103      -74.3589   25.4163  -78.1194 H         1 UNK         0.0837 
    104 H104      -75.7749   26.3990  -78.4859 H         1 UNK         0.0837 
    105 H105      -74.2027   27.1573  -78.2866 H         1 UNK         0.0837 
    106 H106      -76.9519   25.9586  -75.5540 H         1 UNK         0.3020 
    107 H107      -77.1210   22.4562  -75.7335 H         1 UNK         0.1245 
    108 H108      -77.6590   22.2808  -73.5490 H         1 UNK         0.0781 
    109 H109      -78.1263   23.9248  -73.3863 H         1 UNK         0.0781 
    110 H110      -75.8785   24.8327  -70.6726 H         1 UNK         0.0836 
    111 H111      -77.4789   24.7497  -71.3385 H         1 UNK         0.0836 
    112 H112      -79.1827   24.3032  -75.2026 H         1 UNK         0.3022 
    113 H113      -80.2527   25.5476  -77.3182 H         1 UNK         0.0747 
    114 H114      -81.6426   24.6348  -79.1841 H         1 UNK         0.0793 
    115 H115      -79.9561   24.7861  -79.6494 H         1 UNK         0.0793 
    116 H116      -80.6147   23.2042  -79.2623 H         1 UNK         0.0793 
    117 H117      -81.7082   24.5600  -75.9989 H         1 UNK         0.3047 
    118 H118      -83.2152   21.5062  -75.6703 H         1 UNK         0.0822 
    119 H119      -82.4320   21.3165  -73.3007 H         1 UNK         0.0807 
    120 H120      -81.0066   22.2827  -73.6841 H         1 UNK         0.0807 
    121 H121      -81.2263   20.7028  -74.4191 H         1 UNK         0.0807 
    122 H122      -82.8415   23.9111  -74.0172 H         1 UNK         0.2946 
    123 H123      -85.3815   25.7582  -75.5808 H         1 UNK         0.1144 
    124 H124      -86.4816   25.8108  -73.3513 H         1 UNK         0.0793 
    125 H125      -85.6140   24.3552  -72.8594 H         1 UNK         0.0793 
    126 H126      -86.8056   24.2820  -74.1497 H         1 UNK         0.0793 
    127 H127      -83.9275   26.1602  -73.1440 H         1 UNK         0.2896 
@<TRIPOS>BOND
     1    1    2 1    
     2    1   67 1    
     3    1   68 1    
     4    1   69 1    
     5    2    3 2    
     6    2    4 am   BACKBONE|DICT|INTERRES
     7    4    5 1    
     8    4   70 1    
     9    5    6 1    
    10    5   65 1    
    11    5   71 1    
    12    6    7 1    
    13    6   72 1    
    14    6   73 1    
    15    7    8 1    
    16    8    9 1    
    17    8   74 1    
    18    8   75 1    
    19    9   10 ar   
    20    9   14 ar   
    21   10   11 ar   
    22   10   76 1    
    23   11   12 ar   
    24   11   48 1    
    25   12   13 ar   
    26   12   77 1    
    27   13   14 ar   
    28   13   15 1    
    29   14   78 1    
    30   15   16 1    
    31   15   79 1    
    32   15   80 1    
    33   16   17 1    
    34   17   18 1    
    35   17   81 1    
    36   17   82 1    
    37   18   19 1    
    38   18   22 1    
    39   18   83 1    
    40   19   20 am   BACKBONE|DICT|INTERRES
    41   19   21 2    
    42   20   84 1    
    43   20   85 1    
    44   22   23 am   BACKBONE|DICT|INTERRES
    45   22   86 1    
    46   23   24 2    
    47   23   25 1    
    48   25   26 1    
    49   25   27 1    
    50   25   87 1    
    51   26   88 1    
    52   26   89 1    
    53   26   90 1    
    54   27   28 am   BACKBONE|DICT|INTERRES
    55   27   91 1    
    56   28   29 2    
    57   28   30 1    
    58   30   31 1    
    59   30   32 1    
    60   30   92 1    
    61   31   93 1    
    62   31   94 1    
    63   31   95 1    
    64   32   33 am   BACKBONE|DICT|INTERRES
    65   32   96 1    
    66   33   34 2    
    67   33   35 1    
    68   35   36 1    
    69   35   37 1    
    70   35   97 1    
    71   36   98 1    
    72   36   99 1    
    73   36  100 1    
    74   37   38 am   BACKBONE|DICT|INTERRES
    75   37  101 1    
    76   38   39 2    
    77   38   40 1    
    78   40   41 1    
    79   40   42 1    
    80   40  102 1    
    81   41  103 1    
    82   41  104 1    
    83   41  105 1    
    84   42   43 am   BACKBONE|DICT|INTERRES
    85   42  106 1    
    86   43   44 2    
    87   43   45 1    
    88   45   46 1    
    89   45   49 1    
    90   45  107 1    
    91   46   47 1    
    92   46  108 1    
    93   46  109 1    
    94   47   48 1    
    95   48  110 1    
    96   48  111 1    
    97   49   50 am   BACKBONE|DICT|INTERRES
    98   49  112 1    
    99   50   51 2    
   100   50   52 1    
   101   52   53 1    
   102   52   54 1    
   103   52  113 1    
   104   53  114 1    
   105   53  115 1    
   106   53  116 1    
   107   54   55 am   BACKBONE|DICT|INTERRES
   108   54  117 1    
   109   55   56 2    
   110   55   57 1    
   111   57   58 1    
   112   57   59 1    
   113   57  118 1    
   114   58  119 1    
   115   58  120 1    
   116   58  121 1    
   117   59   60 am   BACKBONE|DICT|INTERRES
   118   59  122 1    
   119   60   61 2    
   120   60   62 1    
   121   62   63 1    
   122   62   64 1    
   123   62  123 1    
   124   63  124 1    
   125   63  125 1    
   126   63  126 1    
   127   64   65 am   BACKBONE|DICT|INTERRES
   128   64  127 1    
   129   65   66 2    
@<TRIPOS>SUBSTRUCTURE
     1 UNK         1 GROUP             0       ****    0 ROOT    
