@<TRIPOS>MOLECULE
3R135
127   129    1
SMALL
USER_CHARGES


@<TRIPOS>ATOM
      1 CA        -76.6861   23.8376  -68.8828 C.3       0 UNK        -0.1998 
      2 C         -78.0389   24.2459  -69.4461 C.2       0 UNK         0.4909 
      3 O         -79.0330   23.5589  -69.2054 O.2       0 UNK        -0.5240 
      4 N         -78.0848   25.3619  -70.1844 N.am      1 UNK        -0.4739 
      5 CA        -79.2785   25.8598  -70.8777 C.3       1 UNK         0.0864 
      6 C6        -79.1463   27.3711  -71.2078 C.3       11 UNK        -0.0881 
      7 S7        -80.7641   28.2173  -71.1568 S.3       11 UNK        -0.2682 
      8 C8        -80.2745   29.9460  -70.8566 C.3       11 UNK         0.0289 
      9 C9        -79.4577   30.5097  -72.0099 C.ar      11 UNK        -0.0687 
     10 C10       -80.0315   30.6390  -73.2775 C.ar      11 UNK        -0.0823 
     11 C11       -79.2786   31.1180  -74.3528 C.ar      11 UNK        -0.0830 
     12 C12       -77.9482   31.4944  -74.1469 C.ar      11 UNK        -0.1021 
     13 C13       -77.3609   31.3601  -72.8870 C.ar      11 UNK        -0.0753 
     14 C14       -78.1247   30.8819  -71.8175 C.ar      11 UNK        -0.0933 
     15 C15       -75.8877   31.6886  -72.6994 C.3       11 UNK         0.0166 
     16 S16       -74.8327   30.3548  -73.3540 S.3       11 UNK        -0.2615 
     17 C17       -75.3025   28.9640  -72.2673 C.3       11 UNK        -0.0865 
     18 CA        -74.0840   28.1671  -71.7381 C.3       10 UNK         0.0862 
     19 C         -74.4873   27.1176  -70.6573 C.2       10 UNK         0.5551 
     20 N         -73.5362   26.3898  -70.0915 N.am      10 UNK        -0.7319 
     21 O         -75.6625   26.9461  -70.3393 O.2       10 UNK        -0.5018 
     22 N         -73.3073   27.5985  -72.8514 N.am      10 UNK        -0.4509 
     23 C         -72.0433   27.1587  -72.7980 C.2       10 UNK         0.4899 
     24 O         -71.3428   27.2041  -71.7860 O.2       10 UNK        -0.4839 
     25 CA        -71.4577   26.5541  -74.0820 C.3       9 UNK         0.0222 
     26 CB        -71.6312   25.0262  -74.0749 C.3       9 UNK        -0.1966 
     27 N         -72.0974   27.0942  -75.2806 N.am      9 UNK        -0.4218 
     28 C         -71.6041   28.0632  -76.0603 C.2       9 UNK         0.5020 
     29 O         -70.5344   28.6387  -75.8490 O.2       9 UNK        -0.5274 
     30 CA        -72.4577   28.4347  -77.2913 C.3       8 UNK         0.0270 
     31 CB        -71.6718   29.2224  -78.3606 C.3       8 UNK        -0.1976 
     32 N         -73.1338   27.2728  -77.8863 N.am      8 UNK        -0.4313 
     33 C         -72.5668   26.1609  -78.3848 C.2       8 UNK         0.5041 
     34 O         -71.3505   25.9987  -78.4911 O.2       8 UNK        -0.5577 
     35 CA        -73.5005   25.0084  -78.8058 C.3       7 UNK         0.0284 
     36 CB        -73.3848   23.8433  -77.8090 C.3       7 UNK        -0.1958 
     37 N         -74.9082   25.3982  -78.9160 N.am      7 UNK        -0.4454 
     38 C         -75.4171   26.1304  -79.9154 C.2       7 UNK         0.5089 
     39 O         -74.7695   26.5040  -80.8935 O.2       7 UNK        -0.5125 
     40 CA        -76.8896   26.5503  -79.7767 C.3       6 UNK         0.0408 
     41 CB        -77.8218   25.4461  -80.3001 C.3       6 UNK        -0.1791 
     42 N         -77.2645   26.8990  -78.4025 N.am      6 UNK        -0.4762 
     43 C         -76.7521   27.9187  -77.6953 C.2       6 UNK         0.5007 
     44 O         -75.8576   28.6576  -78.1060 O.2       6 UNK        -0.5032 
     45 CA        -77.3099   28.1082  -76.2701 C.3       5 UNK         0.0783 
     46 C46       -78.7770   28.6150  -76.3020 C.3       11 UNK        -0.0857 
     47 S47       -78.9286   30.3003  -77.0003 S.3       11 UNK        -0.2512 
     48 C48       -79.8998   31.1926  -75.7404 C.3       11 UNK         0.0225 
     49 N         -77.1756   26.8583  -75.5150 N.am      5 UNK        -0.4615 
     50 C         -76.0023   26.3078  -75.1587 C.2       4 UNK         0.5053 
     51 O         -74.9175   26.8790  -75.2703 O.2       4 UNK        -0.5105 
     52 CA        -76.0109   24.8667  -74.6159 C.3       4 UNK         0.0263 
     53 CB        -75.8343   24.8576  -73.0926 C.3       4 UNK        -0.1981 
     54 N         -77.2112   24.1149  -74.9854 N.am      4 UNK        -0.4224 
     55 C         -77.5137   23.7625  -76.2452 C.2       3 UNK         0.4895 
     56 O         -76.7661   23.9710  -77.2015 O.2       3 UNK        -0.5091 
     57 CA        -78.8899   23.1223  -76.5070 C.3       3 UNK         0.0250 
     58 CB        -78.7457   21.6030  -76.6861 C.3       3 UNK        -0.1996 
     59 N         -79.8975   23.3937  -75.4760 N.am      3 UNK        -0.4254 
     60 C         -80.3330   24.6067  -75.1046 C.2       2 UNK         0.5004 
     61 O         -79.9287   25.6573  -75.6053 O.2       2 UNK        -0.5226 
     62 CA        -81.3420   24.6706  -73.9402 C.3       2 UNK         0.0269 
     63 CB        -81.9455   23.3015  -73.5510 C.3       2 UNK        -0.1926 
     64 N         -80.7709   25.3213  -72.7527 N.am      2 UNK        -0.4687 
     65 C         -79.6257   25.0103  -72.1261 C.2       1 UNK         0.5165 
     66 O         -78.8670   24.1135  -72.5074 O.2       1 UNK        -0.5079 
     67 H67       -76.4765   22.7968  -69.1277 H         1 UNK         0.0900 
     68 H68       -76.6830   23.9420  -67.7984 H         1 UNK         0.0900 
     69 H69       -75.8783   24.4459  -69.2875 H         1 UNK         0.0900 
     70 H70       -77.2307   25.8964  -70.3264 H         1 UNK         0.2959 
     71 H71       -80.1096   25.7324  -70.1798 H         1 UNK         0.1079 
     72 H72       -78.5026   27.8593  -70.4736 H         1 UNK         0.0837 
     73 H73       -78.6694   27.5391  -72.1762 H         1 UNK         0.0837 
     74 H74       -81.1730   30.5508  -70.7269 H         1 UNK         0.0685 
     75 H75       -79.7241   30.0065  -69.9164 H         1 UNK         0.0685 
     76 H76       -81.0597   30.3383  -73.4273 H         1 UNK         0.1434 
     77 H77       -77.3558   31.8523  -74.9781 H         1 UNK         0.1329 
     78 H78       -77.6751   30.7763  -70.8399 H         1 UNK         0.1335 
     79 H79       -75.6501   32.6179  -73.2192 H         1 UNK         0.0680 
     80 H80       -75.6553   31.8565  -71.6466 H         1 UNK         0.0680 
     81 H81       -75.8659   29.3541  -71.4198 H         1 UNK         0.1032 
     82 H82       -75.9894   28.3129  -72.8104 H         1 UNK         0.1032 
     83 H83       -73.4409   28.8822  -71.2219 H         1 UNK         0.0461 
     84 H84       -72.5753   26.5244  -70.3845 H         1 UNK         0.3453 
     85 H85       -73.7684   25.7088  -69.3876 H         1 UNK         0.3453 
     86 H86       -73.8089   27.5150  -73.7280 H         1 UNK         0.2984 
     87 H87       -70.3884   26.7749  -74.0983 H         1 UNK         0.0554 
     88 H88       -72.6820   24.7356  -74.0576 H         1 UNK         0.0847 
     89 H89       -71.1552   24.5828  -73.1992 H         1 UNK         0.0847 
     90 H90       -71.1745   24.5734  -74.9553 H         1 UNK         0.0847 
     91 H91       -73.0335   26.7599  -75.4923 H         1 UNK         0.3141 
     92 H92       -73.2509   29.0855  -76.9193 H         1 UNK         0.0743 
     93 H93       -70.8235   28.6527  -78.7412 H         1 UNK         0.0784 
     94 H94       -72.3083   29.4831  -79.2063 H         1 UNK         0.0784 
     95 H95       -71.2805   30.1544  -77.9510 H         1 UNK         0.0784 
     96 H96       -74.1459   27.3196  -77.8681 H         1 UNK         0.3213 
     97 H97       -73.1647   24.6563  -79.7836 H         1 UNK         0.0855 
     98 H98       -73.6549   24.1511  -76.7996 H         1 UNK         0.0814 
     99 H99       -72.3628   23.4640  -77.7691 H         1 UNK         0.0814 
    100 H100      -74.0292   23.0103  -78.0909 H         1 UNK         0.0814 
    101 H101      -75.5418   25.0607  -78.1944 H         1 UNK         0.3105 
    102 H102      -77.0382   27.4398  -80.3925 H         1 UNK         0.0547 
    103 H103      -77.5812   25.1917  -81.3333 H         1 UNK         0.0837 
    104 H104      -77.7379   24.5309  -79.7129 H         1 UNK         0.0837 
    105 H105      -78.8645   25.7633  -80.2813 H         1 UNK         0.0837 
    106 H106      -77.9624   26.3155  -77.9637 H         1 UNK         0.3020 
    107 H107      -76.6974   28.8625  -75.7689 H         1 UNK         0.1245 
    108 H108      -79.1893   28.5981  -75.2926 H         1 UNK         0.0781 
    109 H109      -79.4136   27.9471  -76.8847 H         1 UNK         0.0781 
    110 H110      -80.9140   30.7900  -75.7359 H         1 UNK         0.0836 
    111 H111      -79.9853   32.2393  -76.0348 H         1 UNK         0.0836 
    112 H112      -78.0294   26.3223  -75.3943 H         1 UNK         0.3022 
    113 H113      -75.1568   24.3454  -75.0497 H         1 UNK         0.0747 
    114 H114      -75.9571   23.8572  -72.6772 H         1 UNK         0.0793 
    115 H115      -74.8358   25.1956  -72.8197 H         1 UNK         0.0793 
    116 H116      -76.5502   25.5161  -72.6015 H         1 UNK         0.0793 
    117 H117      -77.8800   23.9328  -74.2416 H         1 UNK         0.3047 
    118 H118      -79.2619   23.5435  -77.4432 H         1 UNK         0.0822 
    119 H119      -79.6914   21.1448  -76.9761 H         1 UNK         0.0807 
    120 H120      -78.4029   21.1196  -75.7704 H         1 UNK         0.0807 
    121 H121      -78.0221   21.3690  -77.4686 H         1 UNK         0.0807 
    122 H122      -80.2593   22.5923  -74.9796 H         1 UNK         0.2946 
    123 H123      -82.1575   25.3069  -74.2882 H         1 UNK         0.1144 
    124 H124      -82.7220   23.4216  -72.7953 H         1 UNK         0.0793 
    125 H125      -81.1985   22.6196  -73.1426 H         1 UNK         0.0793 
    126 H126      -82.4132   22.8150  -74.4082 H         1 UNK         0.0793 
    127 H127      -81.2878   26.1179  -72.4021 H         1 UNK         0.2896 
@<TRIPOS>BOND
     1    1    2 1    
     2    1   67 1    
     3    1   68 1    
     4    1   69 1    
     5    2    3 2    
     6    2    4 am   BACKBONE|DICT|INTERRES
     7    4    5 1    
     8    4   70 1    
     9    5    6 1    
    10    5   65 1    
    11    5   71 1    
    12    6    7 1    
    13    6   72 1    
    14    6   73 1    
    15    7    8 1    
    16    8    9 1    
    17    8   74 1    
    18    8   75 1    
    19    9   10 ar   
    20    9   14 ar   
    21   10   11 ar   
    22   10   76 1    
    23   11   12 ar   
    24   11   48 1    
    25   12   13 ar   
    26   12   77 1    
    27   13   14 ar   
    28   13   15 1    
    29   14   78 1    
    30   15   16 1    
    31   15   79 1    
    32   15   80 1    
    33   16   17 1    
    34   17   18 1    
    35   17   81 1    
    36   17   82 1    
    37   18   19 1    
    38   18   22 1    
    39   18   83 1    
    40   19   20 am   BACKBONE|DICT|INTERRES
    41   19   21 2    
    42   20   84 1    
    43   20   85 1    
    44   22   23 am   BACKBONE|DICT|INTERRES
    45   22   86 1    
    46   23   24 2    
    47   23   25 1    
    48   25   26 1    
    49   25   27 1    
    50   25   87 1    
    51   26   88 1    
    52   26   89 1    
    53   26   90 1    
    54   27   28 am   BACKBONE|DICT|INTERRES
    55   27   91 1    
    56   28   29 2    
    57   28   30 1    
    58   30   31 1    
    59   30   32 1    
    60   30   92 1    
    61   31   93 1    
    62   31   94 1    
    63   31   95 1    
    64   32   33 am   BACKBONE|DICT|INTERRES
    65   32   96 1    
    66   33   34 2    
    67   33   35 1    
    68   35   36 1    
    69   35   37 1    
    70   35   97 1    
    71   36   98 1    
    72   36   99 1    
    73   36  100 1    
    74   37   38 am   BACKBONE|DICT|INTERRES
    75   37  101 1    
    76   38   39 2    
    77   38   40 1    
    78   40   41 1    
    79   40   42 1    
    80   40  102 1    
    81   41  103 1    
    82   41  104 1    
    83   41  105 1    
    84   42   43 am   BACKBONE|DICT|INTERRES
    85   42  106 1    
    86   43   44 2    
    87   43   45 1    
    88   45   46 1    
    89   45   49 1    
    90   45  107 1    
    91   46   47 1    
    92   46  108 1    
    93   46  109 1    
    94   47   48 1    
    95   48  110 1    
    96   48  111 1    
    97   49   50 am   BACKBONE|DICT|INTERRES
    98   49  112 1    
    99   50   51 2    
   100   50   52 1    
   101   52   53 1    
   102   52   54 1    
   103   52  113 1    
   104   53  114 1    
   105   53  115 1    
   106   53  116 1    
   107   54   55 am   BACKBONE|DICT|INTERRES
   108   54  117 1    
   109   55   56 2    
   110   55   57 1    
   111   57   58 1    
   112   57   59 1    
   113   57  118 1    
   114   58  119 1    
   115   58  120 1    
   116   58  121 1    
   117   59   60 am   BACKBONE|DICT|INTERRES
   118   59  122 1    
   119   60   61 2    
   120   60   62 1    
   121   62   63 1    
   122   62   64 1    
   123   62  123 1    
   124   63  124 1    
   125   63  125 1    
   126   63  126 1    
   127   64   65 am   BACKBONE|DICT|INTERRES
   128   64  127 1    
   129   65   66 2    
@<TRIPOS>SUBSTRUCTURE
     1 UNK         1 GROUP             0       ****    0 ROOT    
