@<TRIPOS>MOLECULE
3R135
127   129    1
SMALL
USER_CHARGES


@<TRIPOS>ATOM
      1 CA        -84.4207   28.2474  -71.5838 C.3       0 UNK        -0.1998 
      2 C         -83.1460   27.9741  -72.3670 C.2       0 UNK         0.4909 
      3 O         -82.2544   27.2962  -71.8562 O.2       0 UNK        -0.5240 
      4 N         -83.0580   28.5034  -73.5958 N.am      1 UNK        -0.4739 
      5 CA        -81.9538   28.3885  -74.5635 C.3       1 UNK         0.0864 
      6 C6        -80.5903   28.9456  -74.0700 C.3       11 UNK        -0.0881 
      7 S7        -80.6523   30.6946  -73.5402 S.3       11 UNK        -0.2682 
      8 C8        -80.5251   30.5855  -71.7213 C.3       11 UNK         0.0289 
      9 C9        -79.2008   29.9884  -71.2646 C.ar      11 UNK        -0.0687 
     10 C10       -79.1278   28.6411  -70.9005 C.ar      11 UNK        -0.0823 
     11 C11       -77.9090   28.0619  -70.5414 C.ar      11 UNK        -0.0830 
     12 C12       -76.7622   28.8605  -70.4878 C.ar      11 UNK        -0.1021 
     13 C13       -76.8228   30.2117  -70.8419 C.ar      11 UNK        -0.0753 
     14 C14       -78.0451   30.7732  -71.2244 C.ar      11 UNK        -0.0933 
     15 C15       -75.5568   31.0493  -70.8567 C.3       11 UNK         0.0166 
     16 S16       -74.8883   31.1542  -72.5467 S.3       11 UNK        -0.2615 
     17 C17       -73.0881   31.1312  -72.2358 C.3       11 UNK        -0.0865 
     18 CA        -72.4033   29.7860  -72.6161 C.3       10 UNK         0.0862 
     19 C         -72.8097   28.5922  -71.7098 C.2       10 UNK         0.5551 
     20 N         -72.5684   28.6895  -70.4092 N.am      10 UNK        -0.7319 
     21 O         -73.3277   27.5761  -72.1682 O.2       10 UNK        -0.5018 
     22 N         -72.5554   29.4517  -74.0360 N.am      10 UNK        -0.4509 
     23 C         -71.9079   30.0375  -75.0479 C.2       10 UNK         0.4899 
     24 O         -71.1327   30.9859  -74.9107 O.2       10 UNK        -0.4839 
     25 CA        -72.1616   29.4367  -76.4429 C.3       9 UNK         0.0222 
     26 CB        -71.2523   30.0250  -77.5426 C.3       9 UNK        -0.1966 
     27 N         -72.0911   27.9725  -76.4205 N.am      9 UNK        -0.4218 
     28 C         -71.0375   27.2033  -76.1053 C.2       9 UNK         0.5020 
     29 O         -69.9105   27.6352  -75.8586 O.2       9 UNK        -0.5274 
     30 CA        -71.2828   25.6851  -76.0316 C.3       8 UNK         0.0270 
     31 CB        -71.5256   25.2606  -74.5741 C.3       8 UNK        -0.1976 
     32 N         -72.4024   25.2316  -76.8631 N.am      8 UNK        -0.4313 
     33 C         -72.3941   25.2234  -78.2041 C.2       8 UNK         0.5041 
     34 O         -71.4162   25.5356  -78.8852 O.2       8 UNK        -0.5577 
     35 CA        -73.6986   24.8162  -78.9076 C.3       7 UNK         0.0284 
     36 CB        -73.8307   23.2856  -78.9590 C.3       7 UNK        -0.1958 
     37 N         -74.8891   25.4002  -78.2828 N.am      7 UNK        -0.4454 
     38 C         -75.1855   26.7087  -78.2801 C.2       7 UNK         0.5089 
     39 O         -74.5051   27.5666  -78.8422 O.2       7 UNK        -0.5125 
     40 CA        -76.4311   27.1433  -77.4861 C.3       6 UNK         0.0408 
     41 CB        -77.7150   26.8891  -78.2904 C.3       6 UNK        -0.1791 
     42 N         -76.5259   26.4878  -76.1804 N.am      6 UNK        -0.4762 
     43 C         -75.6375   26.6432  -75.1875 C.2       6 UNK         0.5007 
     44 O         -74.6728   27.4062  -75.2490 O.2       6 UNK        -0.5032 
     45 CA        -75.8233   25.7647  -73.9370 C.3       5 UNK         0.0783 
     46 C46       -76.7809   26.4265  -72.9207 C.3       11 UNK        -0.0857 
     47 S47       -76.5940   25.6824  -71.2629 S.3       11 UNK        -0.2512 
     48 C48       -77.8407   26.5649  -70.2585 C.3       11 UNK         0.0225 
     49 N         -76.2440   24.4062  -74.2906 N.am      5 UNK        -0.4615 
     50 C         -75.4734   23.5178  -74.9305 C.2       4 UNK         0.5053 
     51 O         -74.3156   23.7411  -75.2819 O.2       4 UNK        -0.5105 
     52 CA        -76.1228   22.1681  -75.2755 C.3       4 UNK         0.0263 
     53 CB        -76.1946   21.2633  -74.0350 C.3       4 UNK        -0.1981 
     54 N         -77.4593   22.3207  -75.8563 N.am      4 UNK        -0.4224 
     55 C         -77.7057   22.9135  -77.0335 C.2       3 UNK         0.4895 
     56 O         -76.8305   23.3649  -77.7697 O.2       3 UNK        -0.5091 
     57 CA        -79.1775   23.0630  -77.4501 C.3       3 UNK         0.0250 
     58 CB        -79.6610   21.7980  -78.1770 C.3       3 UNK        -0.1996 
     59 N         -80.0921   23.3766  -76.3473 N.am      3 UNK        -0.4254 
     60 C         -79.9929   24.4398  -75.5369 C.2       2 UNK         0.5004 
     61 O         -79.0486   25.2339  -75.5476 O.2       2 UNK        -0.5226 
     62 CA        -81.1237   24.6135  -74.5099 C.3       2 UNK         0.0269 
     63 CB        -80.7485   23.9149  -73.1925 C.3       2 UNK        -0.1926 
     64 N         -81.4162   26.0189  -74.2253 N.am      2 UNK        -0.4687 
     65 C         -81.7989   26.9522  -75.1070 C.2       1 UNK         0.5165 
     66 O         -82.0417   26.7206  -76.2926 O.2       1 UNK        -0.5079 
     67 H67       -84.9165   27.3091  -71.3366 H         1 UNK         0.0900 
     68 H68       -84.1841   28.7633  -70.6536 H         1 UNK         0.0900 
     69 H69       -85.1218   28.8647  -72.1452 H         1 UNK         0.0900 
     70 H70       -83.8463   29.0357  -73.9377 H         1 UNK         0.2959 
     71 H71       -82.2545   29.0007  -75.4158 H         1 UNK         0.1079 
     72 H72       -79.8546   28.8851  -74.8747 H         1 UNK         0.0837 
     73 H73       -80.1893   28.3239  -73.2735 H         1 UNK         0.0837 
     74 H74       -80.6320   31.5877  -71.3037 H         1 UNK         0.0685 
     75 H75       -81.3618   30.0073  -71.3296 H         1 UNK         0.0685 
     76 H76       -80.0190   28.0309  -70.9338 H         1 UNK         0.1434 
     77 H77       -75.8128   28.4158  -70.2204 H         1 UNK         0.1329 
     78 H78       -78.0908   31.8129  -71.5186 H         1 UNK         0.1335 
     79 H79       -74.8211   30.6126  -70.1800 H         1 UNK         0.0680 
     80 H80       -75.7616   32.0541  -70.4843 H         1 UNK         0.0680 
     81 H81       -72.6453   31.9399  -72.8185 H         1 UNK         0.1032 
     82 H82       -72.8802   31.3930  -71.1976 H         1 UNK         0.1032 
     83 H83       -71.3313   29.9062  -72.4471 H         1 UNK         0.0461 
     84 H84       -72.1186   29.5005  -70.0157 H         1 UNK         0.3453 
     85 H85       -72.8178   27.9172  -69.8120 H         1 UNK         0.3453 
     86 H86       -73.1738   28.6679  -74.2224 H         1 UNK         0.2984 
     87 H87       -73.1925   29.6843  -76.7007 H         1 UNK         0.0554 
     88 H88       -71.4008   31.1015  -77.6353 H         1 UNK         0.0847 
     89 H89       -71.4714   29.5825  -78.5144 H         1 UNK         0.0847 
     90 H90       -70.1957   29.8612  -77.3292 H         1 UNK         0.0847 
     91 H91       -72.9864   27.5068  -76.5180 H         1 UNK         0.3141 
     92 H92       -70.3771   25.1882  -76.3856 H         1 UNK         0.0743 
     93 H93       -70.6945   25.5608  -73.9345 H         1 UNK         0.0784 
     94 H94       -72.4292   25.7170  -74.1681 H         1 UNK         0.0784 
     95 H95       -71.6280   24.1788  -74.4865 H         1 UNK         0.0784 
     96 H96       -73.2208   24.8754  -76.3736 H         1 UNK         0.3213 
     97 H97       -73.6479   25.1854  -79.9342 H         1 UNK         0.0855 
     98 H98       -73.9346   22.8548  -77.9624 H         1 UNK         0.0814 
     99 H99       -72.9534   22.8322  -79.4224 H         1 UNK         0.0814 
    100 H100      -74.6988   22.9833  -79.5449 H         1 UNK         0.0814 
    101 H101      -75.5432   24.7486  -77.8543 H         1 UNK         0.3105 
    102 H102      -76.3539   28.2178  -77.3074 H         1 UNK         0.0547 
    103 H103      -78.5989   27.2203  -77.7446 H         1 UNK         0.0837 
    104 H104      -77.6943   27.4304  -79.2370 H         1 UNK         0.0837 
    105 H105      -77.8429   25.8325  -78.5231 H         1 UNK         0.0837 
    106 H106      -77.3285   25.8809  -76.0240 H         1 UNK         0.3020 
    107 H107      -74.8368   25.6936  -73.4722 H         1 UNK         0.1245 
    108 H108      -77.8207   26.3534  -73.2453 H         1 UNK         0.0781 
    109 H109      -76.5545   27.4911  -72.8399 H         1 UNK         0.0781 
    110 H110      -77.6166   26.4120  -69.2021 H         1 UNK         0.0836 
    111 H111      -78.8101   26.0963  -70.4363 H         1 UNK         0.0836 
    112 H112      -77.2014   24.1660  -74.0824 H         1 UNK         0.3022 
    113 H113      -75.4896   21.6777  -76.0182 H         1 UNK         0.0747 
    114 H114      -76.5720   20.2724  -74.2884 H         1 UNK         0.0793 
    115 H115      -75.2055   21.1283  -73.5947 H         1 UNK         0.0793 
    116 H116      -76.8406   21.6816  -73.2619 H         1 UNK         0.0793 
    117 H117      -78.2408   21.9787  -75.3169 H         1 UNK         0.3047 
    118 H118      -79.2300   23.8955  -78.1541 H         1 UNK         0.0822 
    119 H119      -79.0057   21.5552  -79.0150 H         1 UNK         0.0807 
    120 H120      -80.6640   21.9313  -78.5828 H         1 UNK         0.0807 
    121 H121      -79.6780   20.9311  -77.5152 H         1 UNK         0.0807 
    122 H122      -80.8909   22.7667  -76.2466 H         1 UNK         0.2946 
    123 H123      -82.0351   24.1630  -74.9089 H         1 UNK         0.1144 
    124 H124      -81.5528   23.9912  -72.4604 H         1 UNK         0.0793 
    125 H125      -79.8512   24.3493  -72.7485 H         1 UNK         0.0793 
    126 H126      -80.5550   22.8529  -73.3494 H         1 UNK         0.0793 
    127 H127      -81.3424   26.3157  -73.2569 H         1 UNK         0.2896 
@<TRIPOS>BOND
     1    1    2 1    
     2    1   67 1    
     3    1   68 1    
     4    1   69 1    
     5    2    3 2    
     6    2    4 am   BACKBONE|DICT|INTERRES
     7    4    5 1    
     8    4   70 1    
     9    5    6 1    
    10    5   65 1    
    11    5   71 1    
    12    6    7 1    
    13    6   72 1    
    14    6   73 1    
    15    7    8 1    
    16    8    9 1    
    17    8   74 1    
    18    8   75 1    
    19    9   10 ar   
    20    9   14 ar   
    21   10   11 ar   
    22   10   76 1    
    23   11   12 ar   
    24   11   48 1    
    25   12   13 ar   
    26   12   77 1    
    27   13   14 ar   
    28   13   15 1    
    29   14   78 1    
    30   15   16 1    
    31   15   79 1    
    32   15   80 1    
    33   16   17 1    
    34   17   18 1    
    35   17   81 1    
    36   17   82 1    
    37   18   19 1    
    38   18   22 1    
    39   18   83 1    
    40   19   20 am   BACKBONE|DICT|INTERRES
    41   19   21 2    
    42   20   84 1    
    43   20   85 1    
    44   22   23 am   BACKBONE|DICT|INTERRES
    45   22   86 1    
    46   23   24 2    
    47   23   25 1    
    48   25   26 1    
    49   25   27 1    
    50   25   87 1    
    51   26   88 1    
    52   26   89 1    
    53   26   90 1    
    54   27   28 am   BACKBONE|DICT|INTERRES
    55   27   91 1    
    56   28   29 2    
    57   28   30 1    
    58   30   31 1    
    59   30   32 1    
    60   30   92 1    
    61   31   93 1    
    62   31   94 1    
    63   31   95 1    
    64   32   33 am   BACKBONE|DICT|INTERRES
    65   32   96 1    
    66   33   34 2    
    67   33   35 1    
    68   35   36 1    
    69   35   37 1    
    70   35   97 1    
    71   36   98 1    
    72   36   99 1    
    73   36  100 1    
    74   37   38 am   BACKBONE|DICT|INTERRES
    75   37  101 1    
    76   38   39 2    
    77   38   40 1    
    78   40   41 1    
    79   40   42 1    
    80   40  102 1    
    81   41  103 1    
    82   41  104 1    
    83   41  105 1    
    84   42   43 am   BACKBONE|DICT|INTERRES
    85   42  106 1    
    86   43   44 2    
    87   43   45 1    
    88   45   46 1    
    89   45   49 1    
    90   45  107 1    
    91   46   47 1    
    92   46  108 1    
    93   46  109 1    
    94   47   48 1    
    95   48  110 1    
    96   48  111 1    
    97   49   50 am   BACKBONE|DICT|INTERRES
    98   49  112 1    
    99   50   51 2    
   100   50   52 1    
   101   52   53 1    
   102   52   54 1    
   103   52  113 1    
   104   53  114 1    
   105   53  115 1    
   106   53  116 1    
   107   54   55 am   BACKBONE|DICT|INTERRES
   108   54  117 1    
   109   55   56 2    
   110   55   57 1    
   111   57   58 1    
   112   57   59 1    
   113   57  118 1    
   114   58  119 1    
   115   58  120 1    
   116   58  121 1    
   117   59   60 am   BACKBONE|DICT|INTERRES
   118   59  122 1    
   119   60   61 2    
   120   60   62 1    
   121   62   63 1    
   122   62   64 1    
   123   62  123 1    
   124   63  124 1    
   125   63  125 1    
   126   63  126 1    
   127   64   65 am   BACKBONE|DICT|INTERRES
   128   64  127 1    
   129   65   66 2    
@<TRIPOS>SUBSTRUCTURE
     1 UNK         1 GROUP             0       ****    0 ROOT    
