@<TRIPOS>MOLECULE
3R135
127   129    1
SMALL
USER_CHARGES


@<TRIPOS>ATOM
      1 CA        -80.9979   21.5432  -71.9054 C.3       0 UNK        -0.1998 
      2 C         -80.5174   22.9728  -72.0993 C.2       0 UNK         0.4909 
      3 O         -79.4186   23.1792  -72.6153 O.2       0 UNK        -0.5240 
      4 N         -81.3404   23.9577  -71.7064 N.am      1 UNK        -0.4739 
      5 CA        -81.0684   25.4012  -71.7855 C.3       1 UNK         0.0864 
      6 C6        -79.9880   25.8413  -70.7605 C.3       11 UNK        -0.0881 
      7 S7        -80.0509   27.6243  -70.3599 S.3       11 UNK        -0.2682 
      8 C8        -78.2982   28.1318  -70.5228 C.3       11 UNK         0.0289 
      9 C9        -78.0207   29.2451  -71.5363 C.ar      11 UNK        -0.0687 
     10 C10       -78.9032   29.5619  -72.5782 C.ar      11 UNK        -0.0823 
     11 C11       -78.6057   30.5886  -73.4806 C.ar      11 UNK        -0.0830 
     12 C12       -77.4032   31.2874  -73.3556 C.ar      11 UNK        -0.1021 
     13 C13       -76.5041   30.9754  -72.3333 C.ar      11 UNK        -0.0753 
     14 C14       -76.8242   29.9623  -71.4241 C.ar      11 UNK        -0.0933 
     15 C15       -75.1989   31.7482  -72.2087 C.3       11 UNK         0.0166 
     16 S16       -73.7815   30.7868  -72.8292 S.3       11 UNK        -0.2615 
     17 C17       -73.2098   29.9691  -71.2992 C.3       11 UNK        -0.0865 
     18 CA        -71.7448   29.4561  -71.4134 C.3       10 UNK         0.0862 
     19 C         -71.1333   29.0543  -70.0343 C.2       10 UNK         0.5551 
     20 N         -70.2263   28.0867  -69.9724 N.am      10 UNK        -0.7319 
     21 O         -71.4559   29.6483  -69.0081 O.2       10 UNK        -0.5018 
     22 N         -71.5780   28.4502  -72.4790 N.am      10 UNK        -0.4509 
     23 C         -72.1326   27.2318  -72.5107 C.2       10 UNK         0.4899 
     24 O         -72.8713   26.7831  -71.6327 O.2       10 UNK        -0.4839 
     25 CA        -71.8080   26.3858  -73.7510 C.3       9 UNK         0.0222 
     26 CB        -72.2997   24.9317  -73.6285 C.3       9 UNK        -0.1966 
     27 N         -72.4029   26.9856  -74.9419 N.am      9 UNK        -0.4218 
     28 C         -71.8463   27.9347  -75.7048 C.2       9 UNK         0.5020 
     29 O         -70.7597   28.4602  -75.4505 O.2       9 UNK        -0.5274 
     30 CA        -72.6427   28.3501  -76.9598 C.3       8 UNK         0.0270 
     31 CB        -71.7980   29.1338  -77.9862 C.3       8 UNK        -0.1976 
     32 N         -73.3214   27.2088  -77.5892 N.am      8 UNK        -0.4313 
     33 C         -72.7620   26.0950  -78.0889 C.2       8 UNK         0.5041 
     34 O         -71.5480   25.9346  -78.2233 O.2       8 UNK        -0.5577 
     35 CA        -73.7041   24.9347  -78.4659 C.3       7 UNK         0.0284 
     36 CB        -73.5952   23.8087  -77.4239 C.3       7 UNK        -0.1958 
     37 N         -75.1102   25.3277  -78.5885 N.am      7 UNK        -0.4454 
     38 C         -75.6170   26.0278  -79.6118 C.2       7 UNK         0.5089 
     39 O         -74.9643   26.3715  -80.5978 O.2       7 UNK        -0.5125 
     40 CA        -77.0948   26.4407  -79.5030 C.3       6 UNK         0.0408 
     41 CB        -78.0100   25.3089  -79.9952 C.3       6 UNK        -0.1791 
     42 N         -77.4912   26.8353  -78.1479 N.am      6 UNK        -0.4762 
     43 C         -76.9830   27.8734  -77.4650 C.2       6 UNK         0.5007 
     44 O         -76.1026   28.6159  -77.9000 O.2       6 UNK        -0.5032 
     45 CA        -77.5160   28.0807  -76.0333 C.3       5 UNK         0.0783 
     46 C46       -78.9632   28.6374  -76.0504 C.3       11 UNK        -0.0857 
     47 S47       -79.0011   30.4491  -76.2293 S.3       11 UNK        -0.2512 
     48 C48       -79.5888   30.9586  -74.5828 C.3       11 UNK         0.0225 
     49 N         -77.4058   26.8580  -75.2328 N.am      5 UNK        -0.4615 
     50 C         -76.2674   26.1958  -74.9798 C.2       4 UNK         0.5053 
     51 O         -75.1530   26.5799  -75.3301 O.2       4 UNK        -0.5105 
     52 CA        -76.3922   24.8453  -74.2583 C.3       4 UNK         0.0263 
     53 CB        -76.4450   25.0549  -72.7403 C.3       4 UNK        -0.1981 
     54 N         -77.5593   24.0809  -74.7051 N.am      4 UNK        -0.4224 
     55 C         -77.7177   23.6219  -75.9565 C.2       3 UNK         0.4895 
     56 O         -76.8674   23.7306  -76.8406 O.2       3 UNK        -0.5091 
     57 CA        -79.0766   22.9934  -76.2979 C.3       3 UNK         0.0250 
     58 CB        -79.1809   21.5584  -75.7569 C.3       3 UNK        -0.1996 
     59 N         -80.1901   23.8059  -75.8028 N.am      3 UNK        -0.4254 
     60 C         -80.5047   25.0187  -76.2817 C.2       2 UNK         0.5004 
     61 O         -79.9215   25.5532  -77.2244 O.2       2 UNK        -0.5226 
     62 CA        -81.6412   25.7803  -75.5782 C.3       2 UNK         0.0269 
     63 CB        -82.9904   25.4644  -76.2423 C.3       2 UNK        -0.1926 
     64 N         -81.7295   25.5101  -74.1396 N.am      2 UNK        -0.4687 
     65 C         -80.7858   25.8346  -73.2427 C.2       1 UNK         0.5165 
     66 O         -79.7263   26.3832  -73.5468 O.2       1 UNK        -0.5079 
     67 H67       -80.2925   20.9941  -71.2822 H         1 UNK         0.0900 
     68 H68       -81.9763   21.5019  -71.4274 H         1 UNK         0.0900 
     69 H69       -81.0676   21.0370  -72.8677 H         1 UNK         0.0900 
     70 H70       -82.2350   23.7119  -71.3044 H         1 UNK         0.2959 
     71 H71       -82.0017   25.8928  -71.5052 H         1 UNK         0.1079 
     72 H72       -78.9976   25.5365  -71.0918 H         1 UNK         0.0837 
     73 H73       -80.1462   25.3128  -69.8192 H         1 UNK         0.0837 
     74 H74       -77.9688   28.4622  -69.5366 H         1 UNK         0.0685 
     75 H75       -77.6693   27.2791  -70.7738 H         1 UNK         0.0685 
     76 H76       -79.8262   29.0123  -72.6934 H         1 UNK         0.1434 
     77 H77       -77.1689   32.0750  -74.0590 H         1 UNK         0.1329 
     78 H78       -76.1345   29.7273  -70.6258 H         1 UNK         0.1335 
     79 H79       -75.0397   32.0483  -71.1722 H         1 UNK         0.0680 
     80 H80       -75.2573   32.6758  -72.7803 H         1 UNK         0.0680 
     81 H81       -73.2930   30.6894  -70.4838 H         1 UNK         0.1032 
     82 H82       -73.8874   29.1515  -71.0518 H         1 UNK         0.1032 
     83 H83       -71.1367   30.3044  -71.7298 H         1 UNK         0.0461 
     84 H84       -69.8263   27.8393  -69.0810 H         1 UNK         0.3453 
     85 H85       -69.9424   27.6006  -70.8076 H         1 UNK         0.3453 
     86 H86       -71.0110   28.7298  -73.2708 H         1 UNK         0.2984 
     87 H87       -70.7219   26.3592  -73.8619 H         1 UNK         0.0554 
     88 H88       -71.8569   24.4420  -72.7603 H         1 UNK         0.0847 
     89 H89       -72.0263   24.3455  -74.5060 H         1 UNK         0.0847 
     90 H90       -73.3821   24.8796  -73.5148 H         1 UNK         0.0847 
     91 H91       -73.3581   26.7046  -75.1623 H         1 UNK         0.3141 
     92 H92       -73.4344   29.0134  -76.6079 H         1 UNK         0.0743 
     93 H93       -71.4056   30.0521  -77.5478 H         1 UNK         0.0784 
     94 H94       -70.9455   28.5526  -78.3387 H         1 UNK         0.0784 
     95 H95       -72.3937   29.4177  -78.8538 H         1 UNK         0.0784 
     96 H96       -74.3320   27.2249  -77.5139 H         1 UNK         0.3213 
     97 H97       -73.3707   24.5434  -79.4295 H         1 UNK         0.0855 
     98 H98       -73.9203   24.1424  -76.4380 H         1 UNK         0.0814 
     99 H99       -72.5660   23.4604  -77.3276 H         1 UNK         0.0814 
    100 H100      -74.2039   22.9485  -77.7031 H         1 UNK         0.0814 
    101 H101      -75.7396   25.0197  -77.8515 H         1 UNK         0.3105 
    102 H102      -77.2447   27.3055  -80.1525 H         1 UNK         0.0547 
    103 H103      -79.0545   25.6207  -80.0070 H         1 UNK         0.0837 
    104 H104      -77.7495   25.0080  -81.0108 H         1 UNK         0.0837 
    105 H105      -77.9340   24.4244  -79.3616 H         1 UNK         0.0837 
    106 H106      -78.2353   26.2888  -77.7181 H         1 UNK         0.3020 
    107 H107      -76.8660   28.8112  -75.5450 H         1 UNK         0.1245 
    108 H108      -79.4805   28.3785  -75.1284 H         1 UNK         0.0781 
    109 H109      -79.5650   28.1957  -76.8464 H         1 UNK         0.0781 
    110 H110      -80.5690   30.5167  -74.3964 H         1 UNK         0.0836 
    111 H111      -79.7393   32.0392  -74.5816 H         1 UNK         0.0836 
    112 H112      -78.2668   26.5058  -74.8242 H         1 UNK         0.3022 
    113 H113      -75.5055   24.2536  -74.4922 H         1 UNK         0.0747 
    114 H114      -75.5326   25.5315  -72.3786 H         1 UNK         0.0793 
    115 H115      -77.2759   25.7023  -72.4691 H         1 UNK         0.0793 
    116 H116      -76.5594   24.1114  -72.2064 H         1 UNK         0.0793 
    117 H117      -78.2975   23.9234  -74.0226 H         1 UNK         0.3047 
    118 H118      -79.1545   22.9480  -77.3866 H         1 UNK         0.0822 
    119 H119      -78.3839   20.9340  -76.1630 H         1 UNK         0.0807 
    120 H120      -80.1276   21.0962  -76.0369 H         1 UNK         0.0807 
    121 H121      -79.0973   21.5221  -74.6709 H         1 UNK         0.0807 
    122 H122      -80.6949   23.4584  -75.0011 H         1 UNK         0.2946 
    123 H123      -81.4418   26.8464  -75.7044 H         1 UNK         0.1144 
    124 H124      -83.7929   26.0681  -75.8182 H         1 UNK         0.0793 
    125 H125      -83.2623   24.4142  -76.1284 H         1 UNK         0.0793 
    126 H126      -82.9576   25.6784  -77.3117 H         1 UNK         0.0793 
    127 H127      -82.5595   25.0344  -73.8154 H         1 UNK         0.2896 
@<TRIPOS>BOND
     1    1    2 1    
     2    1   67 1    
     3    1   68 1    
     4    1   69 1    
     5    2    3 2    
     6    2    4 am   BACKBONE|DICT|INTERRES
     7    4    5 1    
     8    4   70 1    
     9    5    6 1    
    10    5   65 1    
    11    5   71 1    
    12    6    7 1    
    13    6   72 1    
    14    6   73 1    
    15    7    8 1    
    16    8    9 1    
    17    8   74 1    
    18    8   75 1    
    19    9   10 ar   
    20    9   14 ar   
    21   10   11 ar   
    22   10   76 1    
    23   11   12 ar   
    24   11   48 1    
    25   12   13 ar   
    26   12   77 1    
    27   13   14 ar   
    28   13   15 1    
    29   14   78 1    
    30   15   16 1    
    31   15   79 1    
    32   15   80 1    
    33   16   17 1    
    34   17   18 1    
    35   17   81 1    
    36   17   82 1    
    37   18   19 1    
    38   18   22 1    
    39   18   83 1    
    40   19   20 am   BACKBONE|DICT|INTERRES
    41   19   21 2    
    42   20   84 1    
    43   20   85 1    
    44   22   23 am   BACKBONE|DICT|INTERRES
    45   22   86 1    
    46   23   24 2    
    47   23   25 1    
    48   25   26 1    
    49   25   27 1    
    50   25   87 1    
    51   26   88 1    
    52   26   89 1    
    53   26   90 1    
    54   27   28 am   BACKBONE|DICT|INTERRES
    55   27   91 1    
    56   28   29 2    
    57   28   30 1    
    58   30   31 1    
    59   30   32 1    
    60   30   92 1    
    61   31   93 1    
    62   31   94 1    
    63   31   95 1    
    64   32   33 am   BACKBONE|DICT|INTERRES
    65   32   96 1    
    66   33   34 2    
    67   33   35 1    
    68   35   36 1    
    69   35   37 1    
    70   35   97 1    
    71   36   98 1    
    72   36   99 1    
    73   36  100 1    
    74   37   38 am   BACKBONE|DICT|INTERRES
    75   37  101 1    
    76   38   39 2    
    77   38   40 1    
    78   40   41 1    
    79   40   42 1    
    80   40  102 1    
    81   41  103 1    
    82   41  104 1    
    83   41  105 1    
    84   42   43 am   BACKBONE|DICT|INTERRES
    85   42  106 1    
    86   43   44 2    
    87   43   45 1    
    88   45   46 1    
    89   45   49 1    
    90   45  107 1    
    91   46   47 1    
    92   46  108 1    
    93   46  109 1    
    94   47   48 1    
    95   48  110 1    
    96   48  111 1    
    97   49   50 am   BACKBONE|DICT|INTERRES
    98   49  112 1    
    99   50   51 2    
   100   50   52 1    
   101   52   53 1    
   102   52   54 1    
   103   52  113 1    
   104   53  114 1    
   105   53  115 1    
   106   53  116 1    
   107   54   55 am   BACKBONE|DICT|INTERRES
   108   54  117 1    
   109   55   56 2    
   110   55   57 1    
   111   57   58 1    
   112   57   59 1    
   113   57  118 1    
   114   58  119 1    
   115   58  120 1    
   116   58  121 1    
   117   59   60 am   BACKBONE|DICT|INTERRES
   118   59  122 1    
   119   60   61 2    
   120   60   62 1    
   121   62   63 1    
   122   62   64 1    
   123   62  123 1    
   124   63  124 1    
   125   63  125 1    
   126   63  126 1    
   127   64   65 am   BACKBONE|DICT|INTERRES
   128   64  127 1    
   129   65   66 2    
@<TRIPOS>SUBSTRUCTURE
     1 UNK         1 GROUP             0       ****    0 ROOT    
