@<TRIPOS>MOLECULE
3R135
127   129    1
SMALL
USER_CHARGES


@<TRIPOS>ATOM
      1 CA        -80.1338   23.2910  -71.6601 C.3       0 UNK        -0.1998 
      2 C         -81.2553   24.3170  -71.7210 C.2       0 UNK         0.4909 
      3 O         -82.1355   24.3163  -70.8595 O.2       0 UNK        -0.5240 
      4 N         -81.2306   25.1900  -72.7310 N.am      1 UNK        -0.4739 
      5 CA        -82.2221   26.2406  -72.9688 C.3       1 UNK         0.0864 
      6 C6        -82.0608   27.4490  -71.9956 C.3       11 UNK        -0.0881 
      7 S7        -80.5412   28.4363  -72.2492 S.3       11 UNK        -0.2682 
      8 C8        -79.4695   27.8064  -70.9264 C.3       11 UNK         0.0289 
      9 C9        -78.0047   28.0869  -71.2234 C.ar      11 UNK        -0.0687 
     10 C10       -77.3082   27.2552  -72.1034 C.ar      11 UNK        -0.0823 
     11 C11       -75.9427   27.4417  -72.3345 C.ar      11 UNK        -0.0830 
     12 C12       -75.2821   28.4923  -71.6958 C.ar      11 UNK        -0.1021 
     13 C13       -75.9800   29.3746  -70.8666 C.ar      11 UNK        -0.0753 
     14 C14       -77.3399   29.1582  -70.6190 C.ar      11 UNK        -0.0933 
     15 C15       -75.2624   30.5657  -70.2498 C.3       11 UNK         0.0166 
     16 S16       -75.4365   32.0646  -71.2744 S.3       11 UNK        -0.2615 
     17 C17       -74.4770   31.6374  -72.7722 C.3       11 UNK        -0.0865 
     18 CA        -75.3789   31.4168  -74.0293 C.3       10 UNK         0.0862 
     19 C         -75.5576   32.7144  -74.8768 C.2       10 UNK         0.5551 
     20 N         -75.5154   32.6530  -76.2025 N.am      10 UNK        -0.7319 
     21 O         -75.7644   33.7939  -74.3285 O.2       10 UNK        -0.5018 
     22 N         -75.0209   30.2189  -74.8127 N.am      10 UNK        -0.4509 
     23 C         -73.8234   29.9224  -75.3276 C.2       10 UNK         0.4899 
     24 O         -72.8032   30.5952  -75.1654 O.2       10 UNK        -0.4839 
     25 CA        -73.7710   28.6652  -76.2012 C.3       9 UNK         0.0222 
     26 CB        -74.0428   29.0067  -77.6760 C.3       9 UNK        -0.1966 
     27 N         -72.4595   28.0383  -76.0754 N.am      9 UNK        -0.4218 
     28 C         -72.2533   26.7240  -75.9482 C.2       9 UNK         0.5020 
     29 O         -73.1542   25.8799  -75.9242 O.2       9 UNK        -0.5274 
     30 CA        -70.7924   26.2818  -75.7693 C.3       8 UNK         0.0270 
     31 CB        -70.4074   26.3077  -74.2805 C.3       8 UNK        -0.1976 
     32 N         -70.6070   24.9265  -76.2840 N.am      8 UNK        -0.4313 
     33 C         -70.5046   24.6043  -77.5808 C.2       8 UNK         0.5041 
     34 O         -70.3699   25.4294  -78.4857 O.2       8 UNK        -0.5577 
     35 CA        -70.5800   23.1044  -77.9269 C.3       7 UNK         0.0284 
     36 CB        -69.1703   22.4963  -78.0105 C.3       7 UNK        -0.1958 
     37 N         -71.3833   22.3461  -76.9606 N.am      7 UNK        -0.4454 
     38 C         -72.7160   22.4406  -76.8465 C.2       7 UNK         0.5089 
     39 O         -73.4243   23.0659  -77.6385 O.2       7 UNK        -0.5125 
     40 CA        -73.3748   21.7400  -75.6469 C.3       6 UNK         0.0408 
     41 CB        -72.3954   21.3764  -74.5067 C.3       6 UNK        -0.1791 
     42 N         -74.4408   22.6025  -75.1386 N.am      6 UNK        -0.4762 
     43 C         -75.4959   22.1870  -74.4259 C.2       6 UNK         0.5007 
     44 O         -75.6888   21.0095  -74.1195 O.2       6 UNK        -0.5032 
     45 CA        -76.5251   23.2482  -74.0024 C.3       5 UNK         0.0783 
     46 C46       -76.1726   23.9318  -72.6488 C.3       11 UNK        -0.0857 
     47 S47       -74.6567   24.9599  -72.6317 S.3       11 UNK        -0.2512 
     48 C48       -75.1843   26.5646  -73.3200 C.3       11 UNK         0.0225 
     49 N         -76.8030   24.1818  -75.0973 N.am      5 UNK        -0.4615 
     50 C         -77.9039   24.9365  -75.1736 C.2       4 UNK         0.5053 
     51 O         -78.8066   24.9126  -74.3354 O.2       4 UNK        -0.5105 
     52 CA        -78.0206   25.8570  -76.3943 C.3       4 UNK         0.0263 
     53 CB        -78.7598   25.1344  -77.5315 C.3       4 UNK        -0.1981 
     54 N         -78.7693   27.0648  -76.0441 N.am      4 UNK        -0.4224 
     55 C         -78.2292   28.2772  -75.8545 C.2       3 UNK         0.4895 
     56 O         -77.0201   28.4939  -75.9221 O.2       3 UNK        -0.5091 
     57 CA        -79.1526   29.4641  -75.5108 C.3       3 UNK         0.0250 
     58 CB        -78.8534   30.6987  -76.3863 C.3       3 UNK        -0.1996 
     59 N         -80.5862   29.1530  -75.5002 N.am      3 UNK        -0.4254 
     60 C         -81.3918   28.8299  -76.5247 C.2       2 UNK         0.5004 
     61 O         -81.0442   28.8305  -77.7062 O.2       2 UNK        -0.5226 
     62 CA        -82.8239   28.3914  -76.1373 C.3       2 UNK         0.0269 
     63 CB        -83.4978   27.5269  -77.2247 C.3       2 UNK        -0.1926 
     64 N         -82.8815   27.7205  -74.8251 N.am      2 UNK        -0.4687 
     65 C         -82.1917   26.6258  -74.4630 C.2       1 UNK         0.5165 
     66 O         -81.5058   25.9726  -75.2530 O.2       1 UNK        -0.5079 
     67 H67       -79.3263   23.6544  -71.0254 H         1 UNK         0.0900 
     68 H68       -79.7289   23.0849  -72.6501 H         1 UNK         0.0900 
     69 H69       -80.4989   22.3511  -71.2470 H         1 UNK         0.0900 
     70 H70       -80.4996   25.1332  -73.4408 H         1 UNK         0.2959 
     71 H71       -83.2087   25.8024  -72.8025 H         1 UNK         0.1079 
     72 H72       -82.0944   27.1021  -70.9617 H         1 UNK         0.0837 
     73 H73       -82.9145   28.1220  -72.0866 H         1 UNK         0.0837 
     74 H74       -79.7661   28.2546  -69.9769 H         1 UNK         0.0685 
     75 H75       -79.6110   26.7305  -70.8178 H         1 UNK         0.0685 
     76 H76       -77.8441   26.4676  -72.6082 H         1 UNK         0.1434 
     77 H77       -74.2270   28.6430  -71.8747 H         1 UNK         0.1329 
     78 H78       -77.8798   29.8261  -69.9617 H         1 UNK         0.1335 
     79 H79       -75.6711   30.7678  -69.2587 H         1 UNK         0.0680 
     80 H80       -74.2042   30.3438  -70.1024 H         1 UNK         0.0680 
     81 H81       -73.8770   30.7546  -72.5601 H         1 UNK         0.1032 
     82 H82       -73.7403   32.4232  -72.9502 H         1 UNK         0.1032 
     83 H83       -76.3858   31.1836  -73.6805 H         1 UNK         0.0461 
     84 H84       -75.3466   31.7765  -76.6671 H         1 UNK         0.3453 
     85 H85       -75.6403   33.4964  -76.7397 H         1 UNK         0.3453 
     86 H86       -75.7986   29.6098  -75.0616 H         1 UNK         0.2984 
     87 H87       -74.5404   27.9749  -75.8554 H         1 UNK         0.0554 
     88 H88       -74.0095   28.1131  -78.2994 H         1 UNK         0.0847 
     89 H89       -73.3144   29.7175  -78.0684 H         1 UNK         0.0847 
     90 H90       -75.0335   29.4464  -77.7984 H         1 UNK         0.0847 
     91 H91       -71.6816   28.6817  -76.0031 H         1 UNK         0.3141 
     92 H92       -70.1396   26.9637  -76.3189 H         1 UNK         0.0743 
     93 H93       -71.0494   25.6560  -73.6856 H         1 UNK         0.0784 
     94 H94       -69.3751   25.9906  -74.1313 H         1 UNK         0.0784 
     95 H95       -70.4983   27.3144  -73.8702 H         1 UNK         0.0784 
     96 H96       -70.7565   24.1777  -75.6259 H         1 UNK         0.3213 
     97 H97       -71.0501   23.0160  -78.9091 H         1 UNK         0.0855 
     98 H98       -68.6483   22.5472  -77.0542 H         1 UNK         0.0814 
     99 H99       -68.5607   23.0286  -78.7422 H         1 UNK         0.0814 
    100 H100      -69.2058   21.4517  -78.3203 H         1 UNK         0.0814 
    101 H101      -70.8800   21.7813  -76.2916 H         1 UNK         0.3105 
    102 H102      -73.8193   20.8201  -76.0322 H         1 UNK         0.0547 
    103 H103      -71.6332   20.6713  -74.8397 H         1 UNK         0.0837 
    104 H104      -71.8919   22.2583  -74.1087 H         1 UNK         0.0837 
    105 H105      -72.9148   20.8967  -73.6770 H         1 UNK         0.0837 
    106 H106      -74.3284   23.5866  -75.3521 H         1 UNK         0.3020 
    107 H107      -77.4491   22.6881  -73.8379 H         1 UNK         0.1245 
    108 H108      -76.0399   23.1623  -71.8862 H         1 UNK         0.0781 
    109 H109      -77.0162   24.5154  -72.2909 H         1 UNK         0.0781 
    110 H110      -75.7644   26.4359  -74.2295 H         1 UNK         0.0836 
    111 H111      -74.2798   27.0844  -73.6360 H         1 UNK         0.0836 
    112 H112      -76.1286   24.2054  -75.8490 H         1 UNK         0.3022 
    113 H113      -77.0177   26.1174  -76.7400 H         1 UNK         0.0747 
    114 H114      -78.8526   25.7731  -78.4101 H         1 UNK         0.0793 
    115 H115      -78.2260   24.2342  -77.8386 H         1 UNK         0.0793 
    116 H116      -79.7646   24.8335  -77.2304 H         1 UNK         0.0793 
    117 H117      -79.7590   26.9250  -75.8701 H         1 UNK         0.3047 
    118 H118      -78.9034   29.7317  -74.4828 H         1 UNK         0.0822 
    119 H119      -79.4811   31.5452  -76.1085 H         1 UNK         0.0807 
    120 H120      -79.0103   30.4948  -77.4456 H         1 UNK         0.0807 
    121 H121      -77.8176   31.0162  -76.2726 H         1 UNK         0.0807 
    122 H122      -80.9846   29.0858  -74.5721 H         1 UNK         0.2946 
    123 H123      -83.4020   29.3124  -76.0434 H         1 UNK         0.1144 
    124 H124      -84.5059   27.2347  -76.9312 H         1 UNK         0.0793 
    125 H125      -82.9311   26.6183  -77.4307 H         1 UNK         0.0793 
    126 H126      -83.5818   28.0753  -78.1638 H         1 UNK         0.0793 
    127 H127      -83.4225   28.1992  -74.1178 H         1 UNK         0.2896 
@<TRIPOS>BOND
     1    1    2 1    
     2    1   67 1    
     3    1   68 1    
     4    1   69 1    
     5    2    3 2    
     6    2    4 am   BACKBONE|DICT|INTERRES
     7    4    5 1    
     8    4   70 1    
     9    5    6 1    
    10    5   65 1    
    11    5   71 1    
    12    6    7 1    
    13    6   72 1    
    14    6   73 1    
    15    7    8 1    
    16    8    9 1    
    17    8   74 1    
    18    8   75 1    
    19    9   10 ar   
    20    9   14 ar   
    21   10   11 ar   
    22   10   76 1    
    23   11   12 ar   
    24   11   48 1    
    25   12   13 ar   
    26   12   77 1    
    27   13   14 ar   
    28   13   15 1    
    29   14   78 1    
    30   15   16 1    
    31   15   79 1    
    32   15   80 1    
    33   16   17 1    
    34   17   18 1    
    35   17   81 1    
    36   17   82 1    
    37   18   19 1    
    38   18   22 1    
    39   18   83 1    
    40   19   20 am   BACKBONE|DICT|INTERRES
    41   19   21 2    
    42   20   84 1    
    43   20   85 1    
    44   22   23 am   BACKBONE|DICT|INTERRES
    45   22   86 1    
    46   23   24 2    
    47   23   25 1    
    48   25   26 1    
    49   25   27 1    
    50   25   87 1    
    51   26   88 1    
    52   26   89 1    
    53   26   90 1    
    54   27   28 am   BACKBONE|DICT|INTERRES
    55   27   91 1    
    56   28   29 2    
    57   28   30 1    
    58   30   31 1    
    59   30   32 1    
    60   30   92 1    
    61   31   93 1    
    62   31   94 1    
    63   31   95 1    
    64   32   33 am   BACKBONE|DICT|INTERRES
    65   32   96 1    
    66   33   34 2    
    67   33   35 1    
    68   35   36 1    
    69   35   37 1    
    70   35   97 1    
    71   36   98 1    
    72   36   99 1    
    73   36  100 1    
    74   37   38 am   BACKBONE|DICT|INTERRES
    75   37  101 1    
    76   38   39 2    
    77   38   40 1    
    78   40   41 1    
    79   40   42 1    
    80   40  102 1    
    81   41  103 1    
    82   41  104 1    
    83   41  105 1    
    84   42   43 am   BACKBONE|DICT|INTERRES
    85   42  106 1    
    86   43   44 2    
    87   43   45 1    
    88   45   46 1    
    89   45   49 1    
    90   45  107 1    
    91   46   47 1    
    92   46  108 1    
    93   46  109 1    
    94   47   48 1    
    95   48  110 1    
    96   48  111 1    
    97   49   50 am   BACKBONE|DICT|INTERRES
    98   49  112 1    
    99   50   51 2    
   100   50   52 1    
   101   52   53 1    
   102   52   54 1    
   103   52  113 1    
   104   53  114 1    
   105   53  115 1    
   106   53  116 1    
   107   54   55 am   BACKBONE|DICT|INTERRES
   108   54  117 1    
   109   55   56 2    
   110   55   57 1    
   111   57   58 1    
   112   57   59 1    
   113   57  118 1    
   114   58  119 1    
   115   58  120 1    
   116   58  121 1    
   117   59   60 am   BACKBONE|DICT|INTERRES
   118   59  122 1    
   119   60   61 2    
   120   60   62 1    
   121   62   63 1    
   122   62   64 1    
   123   62  123 1    
   124   63  124 1    
   125   63  125 1    
   126   63  126 1    
   127   64   65 am   BACKBONE|DICT|INTERRES
   128   64  127 1    
   129   65   66 2    
@<TRIPOS>SUBSTRUCTURE
     1 UNK         1 GROUP             0       ****    0 ROOT    
