@<TRIPOS>MOLECULE
3R135
127   129    1
SMALL
USER_CHARGES


@<TRIPOS>ATOM
      1 CA        -84.8723   25.6456  -70.5597 C.3       0 UNK        -0.1998 
      2 C         -84.5087   26.1565  -71.9456 C.2       0 UNK         0.4909 
      3 O         -85.3893   26.3125  -72.7919 O.2       0 UNK        -0.5240 
      4 N         -83.2172   26.4204  -72.1826 N.am      1 UNK        -0.4739 
      5 CA        -82.6720   26.8816  -73.4666 C.3       1 UNK         0.0864 
      6 C6        -81.2538   27.4818  -73.3088 C.3       11 UNK        -0.0881 
      7 S7        -80.0744   26.3751  -72.4509 S.3       11 UNK        -0.2682 
      8 C8        -79.5063   27.4115  -71.0610 C.3       11 UNK         0.0289 
      9 C9        -78.3613   28.3217  -71.4824 C.ar      11 UNK        -0.0687 
     10 C10       -78.6202   29.4901  -72.2019 C.ar      11 UNK        -0.0823 
     11 C11       -77.5730   30.2904  -72.6630 C.ar      11 UNK        -0.0830 
     12 C12       -76.2550   29.9406  -72.3577 C.ar      11 UNK        -0.1021 
     13 C13       -75.9807   28.7871  -71.6142 C.ar      11 UNK        -0.0753 
     14 C14       -77.0389   27.9836  -71.1783 C.ar      11 UNK        -0.0933 
     15 C15       -74.5423   28.3742  -71.3372 C.3       11 UNK         0.0166 
     16 S16       -73.6035   29.6839  -70.4857 S.3       11 UNK        -0.2615 
     17 C17       -71.9038   29.0203  -70.5602 C.3       11 UNK        -0.0865 
     18 CA        -71.0953   29.5835  -71.7607 C.3       10 UNK         0.0862 
     19 C         -69.5878   29.2041  -71.6538 C.2       10 UNK         0.5551 
     20 N         -69.0018   28.4840  -72.6041 N.am      10 UNK        -0.7319 
     21 O         -68.9325   29.5797  -70.6849 O.2       10 UNK        -0.5018 
     22 N         -71.7202   29.2115  -73.0369 N.am      10 UNK        -0.4509 
     23 C         -71.5670   29.8464  -74.2038 C.2       10 UNK         0.4899 
     24 O         -70.9328   30.8937  -74.3387 O.2       10 UNK        -0.4839 
     25 CA        -72.2417   29.1801  -75.4215 C.3       9 UNK         0.0222 
     26 CB        -71.6006   29.5925  -76.7625 C.3       9 UNK        -0.1966 
     27 N         -72.3257   27.7147  -75.3190 N.am      9 UNK        -0.4218 
     28 C         -71.3066   26.8530  -75.1659 C.2       9 UNK         0.5020 
     29 O         -70.1265   27.1924  -75.0714 O.2       9 UNK        -0.5274 
     30 CA        -71.6625   25.3646  -75.0688 C.3       8 UNK         0.0270 
     31 CB        -72.0933   25.0058  -73.6351 C.3       8 UNK        -0.1976 
     32 N         -72.7270   25.0084  -76.0112 N.am      8 UNK        -0.4313 
     33 C         -72.5515   24.2431  -77.0962 C.2       8 UNK         0.5041 
     34 O         -71.4745   23.7350  -77.4124 O.2       8 UNK        -0.5577 
     35 CA        -73.7799   23.9794  -77.9818 C.3       7 UNK         0.0284 
     36 CB        -74.5862   22.7814  -77.4540 C.3       7 UNK        -0.1958 
     37 N         -74.6650   25.1355  -78.1390 N.am      7 UNK        -0.4454 
     38 C         -74.3762   26.2143  -78.8814 C.2       7 UNK         0.5089 
     39 O         -73.2889   26.4018  -79.4272 O.2       7 UNK        -0.5125 
     40 CA        -75.4989   27.2456  -79.0705 C.3       6 UNK         0.0408 
     41 CB        -76.5176   26.7467  -80.1085 C.3       6 UNK        -0.1791 
     42 N         -76.1856   27.5137  -77.8079 N.am      6 UNK        -0.4762 
     43 C         -75.9438   28.5730  -77.0234 C.2       6 UNK         0.5007 
     44 O         -75.1754   29.4840  -77.3310 O.2       6 UNK        -0.5032 
     45 CA        -76.6560   28.6163  -75.6510 C.3       5 UNK         0.0783 
     46 C46       -77.8772   29.5759  -75.6666 C.3       11 UNK        -0.0857 
     47 S47       -77.3682   31.2884  -75.2687 S.3       11 UNK        -0.2512 
     48 C48       -77.8783   31.5061  -73.5277 C.3       11 UNK         0.0225 
     49 N         -76.9869   27.2830  -75.1262 N.am      5 UNK        -0.4615 
     50 C         -76.0605   26.3778  -74.7821 C.2       4 UNK         0.5053 
     51 O         -74.8499   26.5914  -74.8534 O.2       4 UNK        -0.5105 
     52 CA        -76.5279   24.9755  -74.3559 C.3       4 UNK         0.0263 
     53 CB        -76.5799   24.8550  -72.8268 C.3       4 UNK        -0.1981 
     54 N         -77.7869   24.4981  -74.9475 N.am      4 UNK        -0.4224 
     55 C         -78.0217   24.4034  -76.2667 C.2       3 UNK         0.4895 
     56 O         -77.2840   24.8890  -77.1251 O.2       3 UNK        -0.5091 
     57 CA        -79.2399   23.5954  -76.7281 C.3       3 UNK         0.0250 
     58 CB        -78.8068   22.1332  -76.9702 C.3       3 UNK        -0.1996 
     59 N         -80.3793   23.6650  -75.8045 N.am      3 UNK        -0.4254 
     60 C         -81.6132   23.2320  -76.1052 C.2       2 UNK         0.5004 
     61 O         -81.9251   22.7476  -77.1941 O.2       2 UNK        -0.5226 
     62 CA        -82.6933   23.3463  -75.0158 C.3       2 UNK         0.0269 
     63 CB        -82.7103   22.0816  -74.1418 C.3       2 UNK        -0.1926 
     64 N         -82.5683   24.5242  -74.1551 N.am      2 UNK        -0.4687 
     65 C         -82.7123   25.7945  -74.5610 C.2       1 UNK         0.5165 
     66 O         -82.8946   26.1227  -75.7341 O.2       1 UNK        -0.5079 
     67 H67       -85.5807   26.3233  -70.0841 H         1 UNK         0.0900 
     68 H68       -85.3369   24.6626  -70.6325 H         1 UNK         0.0900 
     69 H69       -83.9985   25.5608  -69.9139 H         1 UNK         0.0900 
     70 H70       -82.5330   26.2736  -71.4534 H         1 UNK         0.2959 
     71 H71       -83.3235   27.6839  -73.8217 H         1 UNK         0.1079 
     72 H72       -81.3483   28.4124  -72.7510 H         1 UNK         0.0837 
     73 H73       -80.8350   27.7633  -74.2771 H         1 UNK         0.0837 
     74 H74       -80.3331   27.9992  -70.6596 H         1 UNK         0.0685 
     75 H75       -79.1823   26.7554  -70.2517 H         1 UNK         0.0685 
     76 H76       -79.6377   29.7633  -72.4373 H         1 UNK         0.1434 
     77 H77       -75.4405   30.5529  -72.7204 H         1 UNK         0.1329 
     78 H78       -76.8329   27.0798  -70.6217 H         1 UNK         0.1335 
     79 H79       -74.0731   28.1293  -72.2894 H         1 UNK         0.0680 
     80 H80       -74.5070   27.4670  -70.7320 H         1 UNK         0.0680 
     81 H81       -71.4184   29.2853  -69.6188 H         1 UNK         0.1032 
     82 H82       -71.9294   27.9292  -70.5843 H         1 UNK         0.1032 
     83 H83       -71.1255   30.6727  -71.6903 H         1 UNK         0.0461 
     84 H84       -68.0247   28.2566  -72.5119 H         1 UNK         0.3453 
     85 H85       -69.5128   28.1700  -73.4220 H         1 UNK         0.3453 
     86 H86       -72.2413   28.3496  -73.0369 H         1 UNK         0.2984 
     87 H87       -73.2701   29.5420  -75.4213 H         1 UNK         0.0554 
     88 H88       -71.6520   30.6723  -76.9065 H         1 UNK         0.0847 
     89 H89       -72.1182   29.1314  -77.6041 H         1 UNK         0.0847 
     90 H90       -70.5500   29.3052  -76.8142 H         1 UNK         0.0847 
     91 H91       -73.2706   27.3351  -75.2903 H         1 UNK         0.3141 
     92 H92       -70.7532   24.8013  -75.2890 H         1 UNK         0.0743 
     93 H93       -71.3031   25.2429  -72.9213 H         1 UNK         0.0784 
     94 H94       -72.9863   25.5470  -73.3225 H         1 UNK         0.0784 
     95 H95       -72.3019   23.9399  -73.5430 H         1 UNK         0.0784 
     96 H96       -73.6405   25.4122  -75.8334 H         1 UNK         0.3213 
     97 H97       -73.4086   23.7135  -78.9743 H         1 UNK         0.0855 
     98 H98       -75.0079   22.9753  -76.4686 H         1 UNK         0.0814 
     99 H99       -73.9561   21.8949  -77.3691 H         1 UNK         0.0814 
    100 H100      -75.4072   22.5305  -78.1257 H         1 UNK         0.0814 
    101 H101      -75.6035   25.0498  -77.7530 H         1 UNK         0.3105 
    102 H102      -75.0500   28.1612  -79.4613 H         1 UNK         0.0547 
    103 H103      -77.2867   27.4955  -80.2975 H         1 UNK         0.0837 
    104 H104      -76.0311   26.5349  -81.0616 H         1 UNK         0.0837 
    105 H105      -77.0153   25.8313  -79.7856 H         1 UNK         0.0837 
    106 H106      -76.7969   26.7799  -77.4633 H         1 UNK         0.3020 
    107 H107      -75.9158   29.0188  -74.9564 H         1 UNK         0.1245 
    108 H108      -78.6373   29.2574  -74.9537 H         1 UNK         0.0781 
    109 H109      -78.3811   29.5711  -76.6351 H         1 UNK         0.0781 
    110 H110      -78.9444   31.7375  -73.5045 H         1 UNK         0.0836 
    111 H111      -77.3706   32.3794  -73.1160 H         1 UNK         0.0836 
    112 H112      -77.9629   27.0406  -75.0456 H         1 UNK         0.3022 
    113 H113      -75.7516   24.2890  -74.6967 H         1 UNK         0.0747 
    114 H114      -76.7216   23.8205  -72.5140 H         1 UNK         0.0793 
    115 H115      -75.6507   25.2037  -72.3732 H         1 UNK         0.0793 
    116 H116      -77.3890   25.4455  -72.4039 H         1 UNK         0.0793 
    117 H117      -78.4231   24.0471  -74.3081 H         1 UNK         0.3047 
    118 H118      -79.5554   24.0258  -77.6812 H         1 UNK         0.0822 
    119 H119      -77.9245   22.0855  -77.6102 H         1 UNK         0.0807 
    120 H120      -79.5845   21.5544  -77.4676 H         1 UNK         0.0807 
    121 H121      -78.5599   21.6271  -76.0363 H         1 UNK         0.0807 
    122 H122      -80.2352   24.1133  -74.9115 H         1 UNK         0.2946 
    123 H123      -83.6556   23.4171  -75.5285 H         1 UNK         0.1144 
    124 H124      -83.5403   22.0983  -73.4351 H         1 UNK         0.0793 
    125 H125      -81.7860   21.9698  -73.5735 H         1 UNK         0.0793 
    126 H126      -82.8269   21.1857  -74.7536 H         1 UNK         0.0793 
    127 H127      -82.4218   24.3595  -73.1696 H         1 UNK         0.2896 
@<TRIPOS>BOND
     1    1    2 1    
     2    1   67 1    
     3    1   68 1    
     4    1   69 1    
     5    2    3 2    
     6    2    4 am   BACKBONE|DICT|INTERRES
     7    4    5 1    
     8    4   70 1    
     9    5    6 1    
    10    5   65 1    
    11    5   71 1    
    12    6    7 1    
    13    6   72 1    
    14    6   73 1    
    15    7    8 1    
    16    8    9 1    
    17    8   74 1    
    18    8   75 1    
    19    9   10 ar   
    20    9   14 ar   
    21   10   11 ar   
    22   10   76 1    
    23   11   12 ar   
    24   11   48 1    
    25   12   13 ar   
    26   12   77 1    
    27   13   14 ar   
    28   13   15 1    
    29   14   78 1    
    30   15   16 1    
    31   15   79 1    
    32   15   80 1    
    33   16   17 1    
    34   17   18 1    
    35   17   81 1    
    36   17   82 1    
    37   18   19 1    
    38   18   22 1    
    39   18   83 1    
    40   19   20 am   BACKBONE|DICT|INTERRES
    41   19   21 2    
    42   20   84 1    
    43   20   85 1    
    44   22   23 am   BACKBONE|DICT|INTERRES
    45   22   86 1    
    46   23   24 2    
    47   23   25 1    
    48   25   26 1    
    49   25   27 1    
    50   25   87 1    
    51   26   88 1    
    52   26   89 1    
    53   26   90 1    
    54   27   28 am   BACKBONE|DICT|INTERRES
    55   27   91 1    
    56   28   29 2    
    57   28   30 1    
    58   30   31 1    
    59   30   32 1    
    60   30   92 1    
    61   31   93 1    
    62   31   94 1    
    63   31   95 1    
    64   32   33 am   BACKBONE|DICT|INTERRES
    65   32   96 1    
    66   33   34 2    
    67   33   35 1    
    68   35   36 1    
    69   35   37 1    
    70   35   97 1    
    71   36   98 1    
    72   36   99 1    
    73   36  100 1    
    74   37   38 am   BACKBONE|DICT|INTERRES
    75   37  101 1    
    76   38   39 2    
    77   38   40 1    
    78   40   41 1    
    79   40   42 1    
    80   40  102 1    
    81   41  103 1    
    82   41  104 1    
    83   41  105 1    
    84   42   43 am   BACKBONE|DICT|INTERRES
    85   42  106 1    
    86   43   44 2    
    87   43   45 1    
    88   45   46 1    
    89   45   49 1    
    90   45  107 1    
    91   46   47 1    
    92   46  108 1    
    93   46  109 1    
    94   47   48 1    
    95   48  110 1    
    96   48  111 1    
    97   49   50 am   BACKBONE|DICT|INTERRES
    98   49  112 1    
    99   50   51 2    
   100   50   52 1    
   101   52   53 1    
   102   52   54 1    
   103   52  113 1    
   104   53  114 1    
   105   53  115 1    
   106   53  116 1    
   107   54   55 am   BACKBONE|DICT|INTERRES
   108   54  117 1    
   109   55   56 2    
   110   55   57 1    
   111   57   58 1    
   112   57   59 1    
   113   57  118 1    
   114   58  119 1    
   115   58  120 1    
   116   58  121 1    
   117   59   60 am   BACKBONE|DICT|INTERRES
   118   59  122 1    
   119   60   61 2    
   120   60   62 1    
   121   62   63 1    
   122   62   64 1    
   123   62  123 1    
   124   63  124 1    
   125   63  125 1    
   126   63  126 1    
   127   64   65 am   BACKBONE|DICT|INTERRES
   128   64  127 1    
   129   65   66 2    
@<TRIPOS>SUBSTRUCTURE
     1 UNK         1 GROUP             0       ****    0 ROOT    
