@<TRIPOS>MOLECULE
3R135
127   129    1
SMALL
USER_CHARGES


@<TRIPOS>ATOM
      1 CA        -85.0336   27.7355  -74.4528 C.3       0 UNK        -0.1998 
      2 C         -83.5706   27.7257  -74.0365 C.2       0 UNK         0.4909 
      3 O         -82.8909   28.7443  -74.1623 O.2       0 UNK        -0.5240 
      4 N         -83.0771   26.5803  -73.5452 N.am      1 UNK        -0.4739 
      5 CA        -81.6886   26.3945  -73.1039 C.3       1 UNK         0.0864 
      6 C6        -81.5933   25.3245  -71.9839 C.3       11 UNK        -0.0881 
      7 S7        -80.0373   25.3232  -71.0171 S.3       11 UNK        -0.2682 
      8 C8        -80.1286   26.8603  -70.0375 C.3       11 UNK         0.0289 
      9 C9        -79.1151   27.8949  -70.5168 C.ar      11 UNK        -0.0687 
     10 C10       -79.5166   28.9569  -71.3333 C.ar      11 UNK        -0.0823 
     11 C11       -78.5839   29.8835  -71.8088 C.ar      11 UNK        -0.0830 
     12 C12       -77.2484   29.7774  -71.4154 C.ar      11 UNK        -0.1021 
     13 C13       -76.8324   28.7289  -70.5923 C.ar      11 UNK        -0.0753 
     14 C14       -77.7688   27.7893  -70.1457 C.ar      11 UNK        -0.0933 
     15 C15       -75.3608   28.6017  -70.2329 C.3       11 UNK         0.0166 
     16 S16       -74.4586   27.8223  -71.6017 S.3       11 UNK        -0.2615 
     17 C17       -72.7137   28.0509  -71.1250 C.3       11 UNK        -0.0865 
     18 CA        -71.9740   29.0528  -72.0511 C.3       10 UNK         0.0862 
     19 C         -70.4844   29.1740  -71.6278 C.2       10 UNK         0.5551 
     20 N         -70.1419   30.1866  -70.8433 N.am      10 UNK        -0.7319 
     21 O         -69.6539   28.3310  -71.9608 O.2       10 UNK        -0.5018 
     22 N         -72.1546   28.7004  -73.4683 N.am      10 UNK        -0.4509 
     23 C         -71.7022   29.3851  -74.5266 C.2       10 UNK         0.4899 
     24 O         -71.0446   30.4238  -74.4443 O.2       10 UNK        -0.4839 
     25 CA        -72.1016   28.8408  -75.9130 C.3       9 UNK         0.0222 
     26 CB        -71.1530   29.2927  -77.0442 C.3       9 UNK        -0.1966 
     27 N         -72.3138   27.3877  -75.9300 N.am      9 UNK        -0.4218 
     28 C         -71.3914   26.4244  -75.7797 C.2       9 UNK         0.5020 
     29 O         -70.1874   26.6346  -75.6310 O.2       9 UNK        -0.5274 
     30 CA        -71.8936   24.9722  -75.7964 C.3       8 UNK         0.0270 
     31 CB        -72.1582   24.4781  -74.3627 C.3       8 UNK        -0.1976 
     32 N         -73.1093   24.8207  -76.6056 N.am      8 UNK        -0.4313 
     33 C         -73.1224   24.3602  -77.8641 C.2       8 UNK         0.5041 
     34 O         -72.1128   23.9997  -78.4714 O.2       8 UNK        -0.5577 
     35 CA        -74.4851   24.2640  -78.5726 C.3       7 UNK         0.0284 
     36 CB        -75.2145   22.9757  -78.1697 C.3       7 UNK        -0.1958 
     37 N         -75.3627   25.4166  -78.3521 N.am      7 UNK        -0.4454 
     38 C         -75.1526   26.6225  -78.9007 C.2       7 UNK         0.5089 
     39 O         -74.1510   26.9152  -79.5539 O.2       7 UNK        -0.5125 
     40 CA        -76.2517   27.6752  -78.7100 C.3       6 UNK         0.0408 
     41 CB        -77.4247   27.4206  -79.6718 C.3       6 UNK        -0.1791 
     42 N         -76.7361   27.6833  -77.3306 N.am      6 UNK        -0.4762 
     43 C         -76.3628   28.5867  -76.4134 C.2       6 UNK         0.5007 
     44 O         -75.6050   29.5284  -76.6469 O.2       6 UNK        -0.5032 
     45 CA        -76.9268   28.4105  -74.9903 C.3       5 UNK         0.0783 
     46 C46       -78.3015   29.1261  -74.8583 C.3       11 UNK        -0.0857 
     47 S47       -78.1223   30.8811  -74.3803 S.3       11 UNK        -0.2512 
     48 C48       -79.0146   30.9697  -72.7865 C.3       11 UNK         0.0225 
     49 N         -76.9855   27.0124  -74.5436 N.am      5 UNK        -0.4615 
     50 C         -75.9555   26.1564  -74.4755 C.2       4 UNK         0.5053 
     51 O         -74.8378   26.3996  -74.9301 O.2       4 UNK        -0.5105 
     52 CA        -76.2167   24.7835  -73.8349 C.3       4 UNK         0.0263 
     53 CB        -76.4074   24.8873  -72.3141 C.3       4 UNK        -0.1981 
     54 N         -77.4022   24.1774  -74.4290 N.am      4 UNK        -0.4224 
     55 C         -77.4424   22.9749  -75.0153 C.2       3 UNK         0.4895 
     56 O         -76.5244   22.1564  -74.9560 O.2       3 UNK        -0.5091 
     57 CA        -78.7057   22.6090  -75.8231 C.3       3 UNK         0.0250 
     58 CB        -79.4916   21.4931  -75.1144 C.3       3 UNK        -0.1996 
     59 N         -79.6158   23.7273  -76.0911 N.am      3 UNK        -0.4254 
     60 C         -79.3262   24.8479  -76.7680 C.2       2 UNK         0.5004 
     61 O         -78.2381   25.0772  -77.3018 O.2       2 UNK        -0.5226 
     62 CA        -80.4098   25.9413  -76.7559 C.3       2 UNK         0.0269 
     63 CB        -81.3458   25.7832  -77.9634 C.3       2 UNK        -0.1926 
     64 N         -81.2081   26.0076  -75.5181 N.am      2 UNK        -0.4687 
     65 C         -80.7111   26.1541  -74.2774 C.2       1 UNK         0.5165 
     66 O         -79.5052   26.1239  -74.0462 O.2       1 UNK        -0.5079 
     67 H67       -85.1211   27.9814  -75.5107 H         1 UNK         0.0900 
     68 H68       -85.5119   26.7702  -74.2878 H         1 UNK         0.0900 
     69 H69       -85.5801   28.4861  -73.8823 H         1 UNK         0.0900 
     70 H70       -83.6796   25.7724  -73.4657 H         1 UNK         0.2959 
     71 H71       -81.3706   27.3369  -72.6648 H         1 UNK         0.1079 
     72 H72       -82.4097   25.4608  -71.2725 H         1 UNK         0.0837 
     73 H73       -81.7343   24.3265  -72.4028 H         1 UNK         0.0837 
     74 H74       -81.1405   27.2673  -70.0652 H         1 UNK         0.0685 
     75 H75       -79.9293   26.6195  -68.9923 H         1 UNK         0.0685 
     76 H76       -80.5539   29.0576  -71.6171 H         1 UNK         0.1434 
     77 H77       -76.5225   30.4885  -71.7858 H         1 UNK         0.1329 
     78 H78       -77.4481   26.9644  -69.5243 H         1 UNK         0.1335 
     79 H79       -74.9421   29.5889  -70.0307 H         1 UNK         0.0680 
     80 H80       -75.2322   28.0102  -69.3252 H         1 UNK         0.0680 
     81 H81       -72.6599   28.3781  -70.0849 H         1 UNK         0.1032 
     82 H82       -72.2294   27.0728  -71.1584 H         1 UNK         0.1032 
     83 H83       -72.4415   30.0310  -71.9213 H         1 UNK         0.0461 
     84 H84       -69.1832   30.2715  -70.5432 H         1 UNK         0.3453 
     85 H85       -70.8184   30.8771  -70.5569 H         1 UNK         0.3453 
     86 H86       -72.7054   27.8718  -73.6389 H         1 UNK         0.2984 
     87 H87       -73.0759   29.2789  -76.1243 H         1 UNK         0.0554 
     88 H88       -71.1422   30.3796  -77.1328 H         1 UNK         0.0847 
     89 H89       -71.4686   28.8940  -78.0085 H         1 UNK         0.0847 
     90 H90       -70.1258   28.9738  -76.8667 H         1 UNK         0.0847 
     91 H91       -73.2859   27.0947  -75.9395 H         1 UNK         0.3141 
     92 H92       -71.0932   24.3555  -76.2108 H         1 UNK         0.0743 
     93 H93       -72.8848   25.0979  -73.8377 H         1 UNK         0.0784 
     94 H94       -72.5264   23.4521  -74.3581 H         1 UNK         0.0784 
     95 H95       -71.2399   24.4950  -73.7742 H         1 UNK         0.0784 
     96 H96       -73.9737   25.1424  -76.1827 H         1 UNK         0.3213 
     97 H97       -74.2882   24.2050  -79.6457 H         1 UNK         0.0855 
     98 H98       -75.3869   22.9417  -77.0966 H         1 UNK         0.0814 
     99 H99       -74.6241   22.0962  -78.4301 H         1 UNK         0.0814 
    100 H100      -76.1777   22.8830  -78.6719 H         1 UNK         0.0814 
    101 H101      -76.2398   25.2479  -77.8708 H         1 UNK         0.3105 
    102 H102      -75.8271   28.6475  -78.9688 H         1 UNK         0.0547 
    103 H103      -77.0891   27.4567  -80.7089 H         1 UNK         0.0837 
    104 H104      -77.8836   26.4444  -79.5155 H         1 UNK         0.0837 
    105 H105      -78.2011   28.1769  -79.5571 H         1 UNK         0.0837 
    106 H106      -77.3291   26.9095  -77.0522 H         1 UNK         0.3020 
    107 H107      -76.2169   28.8894  -74.3114 H         1 UNK         0.1245 
    108 H108      -78.9175   28.6322  -74.1097 H         1 UNK         0.0781 
    109 H109      -78.8861   29.0664  -75.7786 H         1 UNK         0.0781 
    110 H110      -80.0857   30.9091  -72.9863 H         1 UNK         0.0836 
    111 H111      -78.8409   31.9475  -72.3353 H         1 UNK         0.0836 
    112 H112      -77.8893   26.7122  -74.1811 H         1 UNK         0.3022 
    113 H113      -75.3395   24.1617  -74.0254 H         1 UNK         0.0747 
    114 H114      -76.7169   23.9336  -71.8867 H         1 UNK         0.0793 
    115 H115      -75.4759   25.1675  -71.8247 H         1 UNK         0.0793 
    116 H116      -77.1602   25.6303  -72.0480 H         1 UNK         0.0793 
    117 H117      -78.2233   24.7725  -74.4856 H         1 UNK         0.3047 
    118 H118      -78.3629   22.2309  -76.7884 H         1 UNK         0.0822 
    119 H119      -80.3357   21.1561  -75.7163 H         1 UNK         0.0807 
    120 H120      -79.8757   21.8229  -74.1481 H         1 UNK         0.0807 
    121 H121      -78.8594   20.6225  -74.9333 H         1 UNK         0.0807 
    122 H122      -80.5336   23.6645  -75.6751 H         1 UNK         0.2946 
    123 H123      -79.8920   26.8976  -76.8538 H         1 UNK         0.1144 
    124 H124      -82.0422   26.6186  -78.0383 H         1 UNK         0.0793 
    125 H125      -81.9287   24.8631  -77.9056 H         1 UNK         0.0793 
    126 H126      -80.7793   25.7530  -78.8955 H         1 UNK         0.0793 
    127 H127      -82.2112   26.0438  -75.6270 H         1 UNK         0.2896 
@<TRIPOS>BOND
     1    1    2 1    
     2    1   67 1    
     3    1   68 1    
     4    1   69 1    
     5    2    3 2    
     6    2    4 am   BACKBONE|DICT|INTERRES
     7    4    5 1    
     8    4   70 1    
     9    5    6 1    
    10    5   65 1    
    11    5   71 1    
    12    6    7 1    
    13    6   72 1    
    14    6   73 1    
    15    7    8 1    
    16    8    9 1    
    17    8   74 1    
    18    8   75 1    
    19    9   10 ar   
    20    9   14 ar   
    21   10   11 ar   
    22   10   76 1    
    23   11   12 ar   
    24   11   48 1    
    25   12   13 ar   
    26   12   77 1    
    27   13   14 ar   
    28   13   15 1    
    29   14   78 1    
    30   15   16 1    
    31   15   79 1    
    32   15   80 1    
    33   16   17 1    
    34   17   18 1    
    35   17   81 1    
    36   17   82 1    
    37   18   19 1    
    38   18   22 1    
    39   18   83 1    
    40   19   20 am   BACKBONE|DICT|INTERRES
    41   19   21 2    
    42   20   84 1    
    43   20   85 1    
    44   22   23 am   BACKBONE|DICT|INTERRES
    45   22   86 1    
    46   23   24 2    
    47   23   25 1    
    48   25   26 1    
    49   25   27 1    
    50   25   87 1    
    51   26   88 1    
    52   26   89 1    
    53   26   90 1    
    54   27   28 am   BACKBONE|DICT|INTERRES
    55   27   91 1    
    56   28   29 2    
    57   28   30 1    
    58   30   31 1    
    59   30   32 1    
    60   30   92 1    
    61   31   93 1    
    62   31   94 1    
    63   31   95 1    
    64   32   33 am   BACKBONE|DICT|INTERRES
    65   32   96 1    
    66   33   34 2    
    67   33   35 1    
    68   35   36 1    
    69   35   37 1    
    70   35   97 1    
    71   36   98 1    
    72   36   99 1    
    73   36  100 1    
    74   37   38 am   BACKBONE|DICT|INTERRES
    75   37  101 1    
    76   38   39 2    
    77   38   40 1    
    78   40   41 1    
    79   40   42 1    
    80   40  102 1    
    81   41  103 1    
    82   41  104 1    
    83   41  105 1    
    84   42   43 am   BACKBONE|DICT|INTERRES
    85   42  106 1    
    86   43   44 2    
    87   43   45 1    
    88   45   46 1    
    89   45   49 1    
    90   45  107 1    
    91   46   47 1    
    92   46  108 1    
    93   46  109 1    
    94   47   48 1    
    95   48  110 1    
    96   48  111 1    
    97   49   50 am   BACKBONE|DICT|INTERRES
    98   49  112 1    
    99   50   51 2    
   100   50   52 1    
   101   52   53 1    
   102   52   54 1    
   103   52  113 1    
   104   53  114 1    
   105   53  115 1    
   106   53  116 1    
   107   54   55 am   BACKBONE|DICT|INTERRES
   108   54  117 1    
   109   55   56 2    
   110   55   57 1    
   111   57   58 1    
   112   57   59 1    
   113   57  118 1    
   114   58  119 1    
   115   58  120 1    
   116   58  121 1    
   117   59   60 am   BACKBONE|DICT|INTERRES
   118   59  122 1    
   119   60   61 2    
   120   60   62 1    
   121   62   63 1    
   122   62   64 1    
   123   62  123 1    
   124   63  124 1    
   125   63  125 1    
   126   63  126 1    
   127   64   65 am   BACKBONE|DICT|INTERRES
   128   64  127 1    
   129   65   66 2    
@<TRIPOS>SUBSTRUCTURE
     1 UNK         1 GROUP             0       ****    0 ROOT    
