@<TRIPOS>MOLECULE
3R135
127   129    1
SMALL
USER_CHARGES


@<TRIPOS>ATOM
      1 CA        -84.3425   30.8178  -74.3603 C.3       0 UNK        -0.1998 
      2 C         -83.1819   30.1039  -75.0368 C.2       0 UNK         0.4909 
      3 O         -83.0349   30.1938  -76.2560 O.2       0 UNK        -0.5240 
      4 N         -82.3564   29.3959  -74.2543 N.am      1 UNK        -0.4739 
      5 CA        -81.1860   28.6439  -74.7312 C.3       1 UNK         0.0864 
      6 C6        -80.2242   28.2868  -73.5714 C.3       11 UNK        -0.0881 
      7 S7        -79.4931   29.7838  -72.8332 S.3       11 UNK        -0.2682 
      8 C8        -79.0043   29.1763  -71.1896 C.3       11 UNK         0.0289 
      9 C9        -77.8171   28.2240  -71.2507 C.ar      11 UNK        -0.0687 
     10 C10       -77.9635   26.8852  -70.8794 C.ar      11 UNK        -0.0823 
     11 C11       -76.8593   26.0286  -70.8684 C.ar      11 UNK        -0.0830 
     12 C12       -75.6069   26.5173  -71.2514 C.ar      11 UNK        -0.1021 
     13 C13       -75.4420   27.8490  -71.6459 C.ar      11 UNK        -0.0753 
     14 C14       -76.5591   28.6967  -71.6360 C.ar      11 UNK        -0.0933 
     15 C15       -74.0411   28.3101  -72.0626 C.3       11 UNK         0.0166 
     16 S16       -73.8041   30.1169  -72.1995 S.3       11 UNK        -0.2615 
     17 C17       -74.4958   30.4577  -73.8590 C.3       11 UNK        -0.0865 
     18 CA        -73.5366   31.2564  -74.7802 C.3       10 UNK         0.0862 
     19 C         -73.4320   32.7517  -74.3538 C.2       10 UNK         0.5551 
     20 N         -72.2694   33.2507  -73.9504 N.am      10 UNK        -0.7319 
     21 O         -74.4246   33.4741  -74.4044 O.2       10 UNK        -0.5018 
     22 N         -72.2522   30.5620  -74.9668 N.am      10 UNK        -0.4509 
     23 C         -71.3862   30.7949  -75.9592 C.2       10 UNK         0.4899 
     24 O         -71.5901   31.6005  -76.8678 O.2       10 UNK        -0.4839 
     25 CA        -70.0664   30.0025  -75.9545 C.3       9 UNK         0.0222 
     26 CB        -69.0311   30.6488  -75.0129 C.3       9 UNK        -0.1966 
     27 N         -70.2201   28.5645  -75.6962 N.am      9 UNK        -0.4218 
     28 C         -70.5893   27.9317  -74.5750 C.2       9 UNK         0.5020 
     29 O         -70.8650   28.5063  -73.5207 O.2       9 UNK        -0.5274 
     30 CA        -70.7030   26.3977  -74.6763 C.3       8 UNK         0.0270 
     31 CB        -70.9166   25.7309  -73.3044 C.3       8 UNK        -0.1976 
     32 N         -71.7858   26.0013  -75.5827 N.am      8 UNK        -0.4313 
     33 C         -71.7361   26.0797  -76.9228 C.2       8 UNK         0.5041 
     34 O         -70.7297   26.4438  -77.5351 O.2       8 UNK        -0.5577 
     35 CA        -72.9987   25.7176  -77.7296 C.3       7 UNK         0.0284 
     36 CB        -72.8417   24.3317  -78.3752 C.3       7 UNK        -0.1958 
     37 N         -74.2328   25.7397  -76.9444 N.am      7 UNK        -0.4454 
     38 C         -74.7848   26.8325  -76.3954 C.2       7 UNK         0.5089 
     39 O         -74.3683   27.9751  -76.5832 O.2       7 UNK        -0.5125 
     40 CA        -75.9868   26.6138  -75.4548 C.3       6 UNK         0.0408 
     41 CB        -77.2883   26.9635  -76.1890 C.3       6 UNK        -0.1791 
     42 N         -76.0892   25.2522  -74.9128 N.am      6 UNK        -0.4762 
     43 C         -75.1448   24.6348  -74.1816 C.2       6 UNK         0.5007 
     44 O         -74.0827   25.1701  -73.8650 O.2       6 UNK        -0.5032 
     45 CA        -75.3651   23.1546  -73.8027 C.3       5 UNK         0.0783 
     46 C46       -75.6489   22.9705  -72.2918 C.3       11 UNK        -0.0857 
     47 S47       -77.3377   23.4493  -71.7815 S.3       11 UNK        -0.2512 
     48 C48       -77.0182   24.5895  -70.4001 C.3       11 UNK         0.0225 
     49 N         -76.3585   22.4718  -74.6366 N.am      5 UNK        -0.4615 
     50 C         -76.2528   22.2551  -75.9539 C.2       4 UNK         0.5053 
     51 O         -75.2659   22.5725  -76.6185 O.2       4 UNK        -0.5105 
     52 CA        -77.4633   21.6108  -76.6545 C.3       4 UNK         0.0263 
     53 CB        -77.2322   20.1024  -76.8389 C.3       4 UNK        -0.1981 
     54 N         -78.7464   21.8249  -75.9697 N.am      4 UNK        -0.4224 
     55 C         -79.3172   23.0206  -75.7667 C.2       3 UNK         0.4895 
     56 O         -78.7967   24.0919  -76.0843 O.2       3 UNK        -0.5091 
     57 CA        -80.6757   23.0205  -75.0591 C.3       3 UNK         0.0250 
     58 CB        -80.5006   23.0380  -73.5301 C.3       3 UNK        -0.1996 
     59 N         -81.4265   24.1964  -75.4871 N.am      3 UNK        -0.4254 
     60 C         -82.7547   24.3381  -75.4389 C.2       2 UNK         0.5004 
     61 O         -83.5124   23.4780  -74.9852 O.2       2 UNK        -0.5226 
     62 CA        -83.3274   25.6660  -75.9756 C.3       2 UNK         0.0269 
     63 CB        -84.8642   25.7309  -75.8862 C.3       2 UNK        -0.1926 
     64 N         -82.7695   26.8324  -75.2848 N.am      2 UNK        -0.4687 
     65 C         -81.5728   27.3832  -75.5332 C.2       1 UNK         0.5165 
     66 O         -80.7869   26.9333  -76.3673 O.2       1 UNK        -0.5079 
     67 H67       -85.2894   30.4596  -74.7635 H         1 UNK         0.0900 
     68 H68       -84.2789   31.8906  -74.5407 H         1 UNK         0.0900 
     69 H69       -84.3493   30.6553  -73.2826 H         1 UNK         0.0900 
     70 H70       -82.5087   29.3809  -73.2557 H         1 UNK         0.2959 
     71 H71       -80.6436   29.2856  -75.4298 H         1 UNK         0.1079 
     72 H72       -80.7463   27.7139  -72.8027 H         1 UNK         0.0837 
     73 H73       -79.4027   27.6568  -73.9127 H         1 UNK         0.0837 
     74 H74       -79.8624   28.7072  -70.7056 H         1 UNK         0.0685 
     75 H75       -78.7362   30.0319  -70.5683 H         1 UNK         0.0685 
     76 H76       -78.9327   26.5141  -70.5751 H         1 UNK         0.1434 
     77 H77       -74.7506   25.8572  -71.2437 H         1 UNK         0.1329 
     78 H78       -76.4686   29.7345  -71.9188 H         1 UNK         0.1335 
     79 H79       -73.3224   27.9452  -71.3275 H         1 UNK         0.0680 
     80 H80       -73.7708   27.8357  -73.0073 H         1 UNK         0.0680 
     81 H81       -74.7505   29.5158  -74.3453 H         1 UNK         0.1032 
     82 H82       -75.4452   30.9840  -73.7435 H         1 UNK         0.1032 
     83 H83       -74.0118   31.2795  -75.7629 H         1 UNK         0.0461 
     84 H84       -71.4559   32.6598  -73.8991 H         1 UNK         0.3453 
     85 H85       -72.2116   34.2203  -73.6819 H         1 UNK         0.3453 
     86 H86       -71.9859   29.8962  -74.2461 H         1 UNK         0.2984 
     87 H87       -69.6638   30.0667  -76.9667 H         1 UNK         0.0554 
     88 H88       -68.0723   30.1330  -75.0646 H         1 UNK         0.0847 
     89 H89       -69.3592   30.6416  -73.9731 H         1 UNK         0.0847 
     90 H90       -68.8536   31.6894  -75.2876 H         1 UNK         0.0847 
     91 H91       -70.1226   27.9676  -76.5155 H         1 UNK         0.3141 
     92 H92       -69.7585   26.0248  -75.0785 H         1 UNK         0.0743 
     93 H93       -70.0869   25.9519  -72.6319 H         1 UNK         0.0784 
     94 H94       -71.8279   26.0823  -72.8195 H         1 UNK         0.0784 
     95 H95       -70.9826   24.6465  -73.3943 H         1 UNK         0.0784 
     96 H96       -72.6560   25.7223  -75.1377 H         1 UNK         0.3213 
     97 H97       -73.0970   26.4591  -78.5252 H         1 UNK         0.0855 
     98 H98       -72.7479   23.5458  -77.6244 H         1 UNK         0.0814 
     99 H99       -71.9507   24.2912  -79.0034 H         1 UNK         0.0814 
    100 H100      -73.6951   24.0886  -79.0085 H         1 UNK         0.0814 
    101 H101      -74.6548   24.8418  -76.7410 H         1 UNK         0.3105 
    102 H102      -75.8755   27.2917  -74.6068 H         1 UNK         0.0547 
    103 H103      -77.4164   26.3634  -77.0909 H         1 UNK         0.0837 
    104 H104      -78.1580   26.7913  -75.5590 H         1 UNK         0.0837 
    105 H105      -77.3021   28.0124  -76.4873 H         1 UNK         0.0837 
    106 H106      -76.9301   24.7377  -75.1518 H         1 UNK         0.3020 
    107 H107      -74.4087   22.6670  -74.0062 H         1 UNK         0.1245 
    108 H108      -74.9047   23.5013  -71.6959 H         1 UNK         0.0781 
    109 H109      -75.5223   21.9185  -72.0318 H         1 UNK         0.0781 
    110 H110      -76.1390   24.2696  -69.8389 H         1 UNK         0.0836 
    111 H111      -77.8530   24.5219  -69.7009 H         1 UNK         0.0836 
    112 H112      -77.2102   22.1992  -74.1684 H         1 UNK         0.3022 
    113 H113      -77.5395   22.0680  -77.6434 H         1 UNK         0.0747 
    114 H114      -78.0313   19.6459  -77.4233 H         1 UNK         0.0793 
    115 H115      -76.2978   19.9125  -77.3694 H         1 UNK         0.0793 
    116 H116      -77.1746   19.5824  -75.8817 H         1 UNK         0.0793 
    117 H117      -79.2350   20.9955  -75.6625 H         1 UNK         0.3047 
    118 H118      -81.2214   22.1222  -75.3560 H         1 UNK         0.0822 
    119 H119      -79.9108   22.1864  -73.1891 H         1 UNK         0.0807 
    120 H120      -81.4617   22.9882  -73.0182 H         1 UNK         0.0807 
    121 H121      -79.9936   23.9448  -73.1974 H         1 UNK         0.0807 
    122 H122      -80.8630   24.9431  -75.8880 H         1 UNK         0.2946 
    123 H123      -83.0567   25.7211  -77.0329 H         1 UNK         0.1144 
    124 H124      -85.3233   24.9030  -76.4282 H         1 UNK         0.0793 
    125 H125      -85.2482   26.6528  -76.3235 H         1 UNK         0.0793 
    126 H126      -85.2119   25.6785  -74.8537 H         1 UNK         0.0793 
    127 H127      -83.3444   27.2533  -74.5694 H         1 UNK         0.2896 
@<TRIPOS>BOND
     1    1    2 1    
     2    1   67 1    
     3    1   68 1    
     4    1   69 1    
     5    2    3 2    
     6    2    4 am   BACKBONE|DICT|INTERRES
     7    4    5 1    
     8    4   70 1    
     9    5    6 1    
    10    5   65 1    
    11    5   71 1    
    12    6    7 1    
    13    6   72 1    
    14    6   73 1    
    15    7    8 1    
    16    8    9 1    
    17    8   74 1    
    18    8   75 1    
    19    9   10 ar   
    20    9   14 ar   
    21   10   11 ar   
    22   10   76 1    
    23   11   12 ar   
    24   11   48 1    
    25   12   13 ar   
    26   12   77 1    
    27   13   14 ar   
    28   13   15 1    
    29   14   78 1    
    30   15   16 1    
    31   15   79 1    
    32   15   80 1    
    33   16   17 1    
    34   17   18 1    
    35   17   81 1    
    36   17   82 1    
    37   18   19 1    
    38   18   22 1    
    39   18   83 1    
    40   19   20 am   BACKBONE|DICT|INTERRES
    41   19   21 2    
    42   20   84 1    
    43   20   85 1    
    44   22   23 am   BACKBONE|DICT|INTERRES
    45   22   86 1    
    46   23   24 2    
    47   23   25 1    
    48   25   26 1    
    49   25   27 1    
    50   25   87 1    
    51   26   88 1    
    52   26   89 1    
    53   26   90 1    
    54   27   28 am   BACKBONE|DICT|INTERRES
    55   27   91 1    
    56   28   29 2    
    57   28   30 1    
    58   30   31 1    
    59   30   32 1    
    60   30   92 1    
    61   31   93 1    
    62   31   94 1    
    63   31   95 1    
    64   32   33 am   BACKBONE|DICT|INTERRES
    65   32   96 1    
    66   33   34 2    
    67   33   35 1    
    68   35   36 1    
    69   35   37 1    
    70   35   97 1    
    71   36   98 1    
    72   36   99 1    
    73   36  100 1    
    74   37   38 am   BACKBONE|DICT|INTERRES
    75   37  101 1    
    76   38   39 2    
    77   38   40 1    
    78   40   41 1    
    79   40   42 1    
    80   40  102 1    
    81   41  103 1    
    82   41  104 1    
    83   41  105 1    
    84   42   43 am   BACKBONE|DICT|INTERRES
    85   42  106 1    
    86   43   44 2    
    87   43   45 1    
    88   45   46 1    
    89   45   49 1    
    90   45  107 1    
    91   46   47 1    
    92   46  108 1    
    93   46  109 1    
    94   47   48 1    
    95   48  110 1    
    96   48  111 1    
    97   49   50 am   BACKBONE|DICT|INTERRES
    98   49  112 1    
    99   50   51 2    
   100   50   52 1    
   101   52   53 1    
   102   52   54 1    
   103   52  113 1    
   104   53  114 1    
   105   53  115 1    
   106   53  116 1    
   107   54   55 am   BACKBONE|DICT|INTERRES
   108   54  117 1    
   109   55   56 2    
   110   55   57 1    
   111   57   58 1    
   112   57   59 1    
   113   57  118 1    
   114   58  119 1    
   115   58  120 1    
   116   58  121 1    
   117   59   60 am   BACKBONE|DICT|INTERRES
   118   59  122 1    
   119   60   61 2    
   120   60   62 1    
   121   62   63 1    
   122   62   64 1    
   123   62  123 1    
   124   63  124 1    
   125   63  125 1    
   126   63  126 1    
   127   64   65 am   BACKBONE|DICT|INTERRES
   128   64  127 1    
   129   65   66 2    
@<TRIPOS>SUBSTRUCTURE
     1 UNK         1 GROUP             0       ****    0 ROOT    
