@<TRIPOS>MOLECULE
3R135
127   129    1
SMALL
USER_CHARGES


@<TRIPOS>ATOM
      1 CA        -83.2611   26.8649  -76.3005 C.3       0 UNK        -0.1998 
      2 C         -81.9943   27.6131  -75.9156 C.2       0 UNK         0.4909 
      3 O         -81.2511   28.0485  -76.7956 O.2       0 UNK        -0.5240 
      4 N         -81.7350   27.7525  -74.6077 N.am      1 UNK        -0.4739 
      5 CA        -80.5510   28.4042  -74.0339 C.3       1 UNK         0.0864 
      6 C6        -80.6521   28.4763  -72.4897 C.3       11 UNK        -0.0881 
      7 S7        -79.6912   29.8584  -71.7925 S.3       11 UNK        -0.2682 
      8 C8        -79.1954   29.1736  -70.1795 C.3       11 UNK         0.0289 
      9 C9        -77.7947   28.5839  -70.2312 C.ar      11 UNK        -0.0687 
     10 C10       -77.5940   27.2033  -70.3280 C.ar      11 UNK        -0.0823 
     11 C11       -76.2968   26.6782  -70.3435 C.ar      11 UNK        -0.0830 
     12 C12       -75.2041   27.5493  -70.2920 C.ar      11 UNK        -0.1021 
     13 C13       -75.3866   28.9329  -70.2137 C.ar      11 UNK        -0.0753 
     14 C14       -76.6916   29.4377  -70.1593 C.ar      11 UNK        -0.0933 
     15 C15       -74.1403   29.8218  -70.2001 C.3       11 UNK         0.0166 
     16 S16       -74.4085   31.6347  -70.1740 S.3       11 UNK        -0.2615 
     17 C17       -75.2277   32.0988  -71.7511 C.3       11 UNK        -0.0865 
     18 CA        -75.1682   31.0963  -72.9359 C.3       10 UNK         0.0862 
     19 C         -76.0513   31.6014  -74.1097 C.2       10 UNK         0.5551 
     20 N         -77.3587   31.3902  -74.0350 N.am      10 UNK        -0.7319 
     21 O         -75.5758   32.2294  -75.0540 O.2       10 UNK        -0.5018 
     22 N         -73.7818   30.8373  -73.3447 N.am      10 UNK        -0.4509 
     23 C         -73.3891   29.7910  -74.0783 C.2       10 UNK         0.4899 
     24 O         -74.1395   28.8916  -74.4616 O.2       10 UNK        -0.4839 
     25 CA        -71.8801   29.7108  -74.3600 C.3       9 UNK         0.0222 
     26 CB        -71.1423   29.1201  -73.1458 C.3       9 UNK        -0.1966 
     27 N         -71.5912   28.8840  -75.5305 N.am      9 UNK        -0.4218 
     28 C         -71.7285   29.2702  -76.8063 C.2       9 UNK         0.5020 
     29 O         -72.0565   30.4076  -77.1477 O.2       9 UNK        -0.5274 
     30 CA        -71.4211   28.2183  -77.8906 C.3       8 UNK         0.0270 
     31 CB        -70.0083   28.4308  -78.4602 C.3       8 UNK        -0.1976 
     32 N         -71.5411   26.8403  -77.4004 N.am      8 UNK        -0.4313 
     33 C         -72.7097   26.2156  -77.2100 C.2       8 UNK         0.5041 
     34 O         -73.8015   26.6981  -77.5143 O.2       8 UNK        -0.5577 
     35 CA        -72.6424   24.8365  -76.5455 C.3       7 UNK         0.0284 
     36 CB        -72.3433   24.9660  -75.0395 C.3       7 UNK        -0.1958 
     37 N         -73.9228   24.1575  -76.7152 N.am      7 UNK        -0.4454 
     38 C         -74.0877   22.8402  -76.8764 C.2       7 UNK         0.5089 
     39 O         -73.1590   22.0323  -76.9426 O.2       7 UNK        -0.5125 
     40 CA        -75.5480   22.3582  -76.9372 C.3       6 UNK         0.0408 
     41 CB        -75.6934   20.8248  -77.0317 C.3       6 UNK        -0.1791 
     42 N         -76.3221   22.9062  -75.8197 N.am      6 UNK        -0.4762 
     43 C         -76.1512   22.6807  -74.5067 C.2       6 UNK         0.5007 
     44 O         -75.3687   21.8516  -74.0409 O.2       6 UNK        -0.5032 
     45 CA        -77.0152   23.5321  -73.5504 C.3       5 UNK         0.0783 
     46 C46       -76.2974   24.8516  -73.1633 C.3       11 UNK        -0.0857 
     47 S47       -75.0941   24.6276  -71.8166 S.3       11 UNK        -0.2512 
     48 C48       -76.0698   25.1704  -70.3748 C.3       11 UNK         0.0225 
     49 N         -78.3398   23.8138  -74.1060 N.am      5 UNK        -0.4615 
     50 C         -79.2916   22.9103  -74.3732 C.2       4 UNK         0.5053 
     51 O         -79.2077   21.7152  -74.0910 O.2       4 UNK        -0.5105 
     52 CA        -80.5347   23.4343  -75.1093 C.3       4 UNK         0.0263 
     53 CB        -81.5430   24.0451  -74.1222 C.3       4 UNK        -0.1981 
     54 N         -80.1659   24.4259  -76.1239 N.am      4 UNK        -0.4224 
     55 C         -79.6760   24.1179  -77.3341 C.2       3 UNK         0.4895 
     56 O         -79.5811   22.9671  -77.7603 O.2       3 UNK        -0.5091 
     57 CA        -79.1960   25.2804  -78.2206 C.3       3 UNK         0.0250 
     58 CB        -80.3041   25.7124  -79.1941 C.3       3 UNK        -0.1996 
     59 N         -78.7365   26.4403  -77.4516 N.am      3 UNK        -0.4254 
     60 C         -77.5677   26.4895  -76.7934 C.2       2 UNK         0.5004 
     61 O         -76.7595   25.5615  -76.7726 O.2       2 UNK        -0.5226 
     62 CA        -77.2747   27.7652  -75.9807 C.3       2 UNK         0.0269 
     63 CB        -76.6339   28.8296  -76.8851 C.3       2 UNK        -0.1926 
     64 N         -78.4600   28.3384  -75.3320 N.am      2 UNK        -0.4687 
     65 C         -79.2684   27.6817  -74.4892 C.2       1 UNK         0.5165 
     66 O         -79.0821   26.5175  -74.1344 O.2       1 UNK        -0.5079 
     67 H67       -83.8651   26.6102  -75.4298 H         1 UNK         0.0900 
     68 H68       -83.8692   27.4763  -76.9667 H         1 UNK         0.0900 
     69 H69       -83.0083   25.9416  -76.8208 H         1 UNK         0.0900 
     70 H70       -82.3796   27.3587  -73.9375 H         1 UNK         0.2959 
     71 H71       -80.5392   29.4225  -74.4292 H         1 UNK         0.1079 
     72 H72       -81.6875   28.6442  -72.1884 H         1 UNK         0.0837 
     73 H73       -80.3603   27.5318  -72.0254 H         1 UNK         0.0837 
     74 H74       -79.9205   28.4329  -69.8390 H         1 UNK         0.0685 
     75 H75       -79.2200   29.9760  -69.4405 H         1 UNK         0.0685 
     76 H76       -78.4466   26.5396  -70.3728 H         1 UNK         0.1434 
     77 H77       -74.2017   27.1432  -70.3161 H         1 UNK         0.1329 
     78 H78       -76.8691   30.4989  -70.0742 H         1 UNK         0.1335 
     79 H79       -73.5005   29.5596  -71.0410 H         1 UNK         0.0680 
     80 H80       -73.5663   29.5712  -69.3070 H         1 UNK         0.0680 
     81 H81       -74.8091   33.0580  -72.0618 H         1 UNK         0.1032 
     82 H82       -76.2691   32.3138  -71.5037 H         1 UNK         0.1032 
     83 H83       -75.5987   30.1469  -72.6184 H         1 UNK         0.0461 
     84 H84       -77.7680   30.9039  -73.2516 H         1 UNK         0.3453 
     85 H85       -77.9487   31.7586  -74.7633 H         1 UNK         0.3453 
     86 H86       -73.1033   31.5346  -73.0771 H         1 UNK         0.2984 
     87 H87       -71.5022   30.7191  -74.5433 H         1 UNK         0.0554 
     88 H88       -71.2762   29.7453  -72.2622 H         1 UNK         0.0847 
     89 H89       -70.0696   29.0496  -73.3271 H         1 UNK         0.0847 
     90 H90       -71.5078   28.1228  -72.8964 H         1 UNK         0.0847 
     91 H91       -71.3624   27.9188  -75.3527 H         1 UNK         0.3141 
     92 H92       -72.1387   28.3650  -78.7011 H         1 UNK         0.0743 
     93 H93       -69.8977   29.4395  -78.8610 H         1 UNK         0.0784 
     94 H94       -69.2393   28.2976  -77.6982 H         1 UNK         0.0784 
     95 H95       -69.7999   27.7366  -79.2746 H         1 UNK         0.0784 
     96 H96       -70.6830   26.3669  -77.1534 H         1 UNK         0.3213 
     97 H97       -71.8507   24.2623  -77.0321 H         1 UNK         0.0855 
     98 H98       -73.0877   25.5841  -74.5342 H         1 UNK         0.0814 
     99 H99       -71.3667   25.4177  -74.8640 H         1 UNK         0.0814 
    100 H100      -72.3379   23.9910  -74.5513 H         1 UNK         0.0814 
    101 H101      -74.7325   24.7729  -76.7524 H         1 UNK         0.3105 
    102 H102      -75.9787   22.7859  -77.8438 H         1 UNK         0.0547 
    103 H103      -76.7417   20.5290  -77.0695 H         1 UNK         0.0837 
    104 H104      -75.2307   20.3157  -76.1860 H         1 UNK         0.0837 
    105 H105      -75.2158   20.4461  -77.9359 H         1 UNK         0.0837 
    106 H106      -76.9248   23.6828  -76.0726 H         1 UNK         0.3020 
    107 H107      -77.1781   22.9385  -72.6480 H         1 UNK         0.1245 
    108 H108      -77.0211   25.5989  -72.8369 H         1 UNK         0.0781 
    109 H109      -75.7917   25.3007  -74.0207 H         1 UNK         0.0781 
    110 H110      -75.5401   24.8795  -69.4667 H         1 UNK         0.0836 
    111 H111      -77.0176   24.6298  -70.3603 H         1 UNK         0.0836 
    112 H112      -78.5447   24.7944  -74.2865 H         1 UNK         0.3022 
    113 H113      -81.0162   22.5863  -75.6014 H         1 UNK         0.0747 
    114 H114      -82.4469   24.3754  -74.6333 H         1 UNK         0.0793 
    115 H115      -81.8458   23.3105  -73.3749 H         1 UNK         0.0793 
    116 H116      -81.1272   24.8985  -73.5862 H         1 UNK         0.0793 
    117 H117      -80.1481   25.3923  -75.8292 H         1 UNK         0.3047 
    118 H118      -78.3547   24.9119  -78.8122 H         1 UNK         0.0822 
    119 H119      -79.9584   26.4994  -79.8645 H         1 UNK         0.0807 
    120 H120      -81.1855   26.0819  -78.6701 H         1 UNK         0.0807 
    121 H121      -80.6236   24.8752  -79.8162 H         1 UNK         0.0807 
    122 H122      -79.3767   27.2243  -77.3764 H         1 UNK         0.2946 
    123 H123      -76.5591   27.4999  -75.1989 H         1 UNK         0.1144 
    124 H124      -75.7551   28.4324  -77.3934 H         1 UNK         0.0793 
    125 H125      -76.3001   29.6913  -76.3093 H         1 UNK         0.0793 
    126 H126      -77.3238   29.1810  -77.6529 H         1 UNK         0.0793 
    127 H127      -78.7039   29.2797  -75.6027 H         1 UNK         0.2896 
@<TRIPOS>BOND
     1    1    2 1    
     2    1   67 1    
     3    1   68 1    
     4    1   69 1    
     5    2    3 2    
     6    2    4 am   BACKBONE|DICT|INTERRES
     7    4    5 1    
     8    4   70 1    
     9    5    6 1    
    10    5   65 1    
    11    5   71 1    
    12    6    7 1    
    13    6   72 1    
    14    6   73 1    
    15    7    8 1    
    16    8    9 1    
    17    8   74 1    
    18    8   75 1    
    19    9   10 ar   
    20    9   14 ar   
    21   10   11 ar   
    22   10   76 1    
    23   11   12 ar   
    24   11   48 1    
    25   12   13 ar   
    26   12   77 1    
    27   13   14 ar   
    28   13   15 1    
    29   14   78 1    
    30   15   16 1    
    31   15   79 1    
    32   15   80 1    
    33   16   17 1    
    34   17   18 1    
    35   17   81 1    
    36   17   82 1    
    37   18   19 1    
    38   18   22 1    
    39   18   83 1    
    40   19   20 am   BACKBONE|DICT|INTERRES
    41   19   21 2    
    42   20   84 1    
    43   20   85 1    
    44   22   23 am   BACKBONE|DICT|INTERRES
    45   22   86 1    
    46   23   24 2    
    47   23   25 1    
    48   25   26 1    
    49   25   27 1    
    50   25   87 1    
    51   26   88 1    
    52   26   89 1    
    53   26   90 1    
    54   27   28 am   BACKBONE|DICT|INTERRES
    55   27   91 1    
    56   28   29 2    
    57   28   30 1    
    58   30   31 1    
    59   30   32 1    
    60   30   92 1    
    61   31   93 1    
    62   31   94 1    
    63   31   95 1    
    64   32   33 am   BACKBONE|DICT|INTERRES
    65   32   96 1    
    66   33   34 2    
    67   33   35 1    
    68   35   36 1    
    69   35   37 1    
    70   35   97 1    
    71   36   98 1    
    72   36   99 1    
    73   36  100 1    
    74   37   38 am   BACKBONE|DICT|INTERRES
    75   37  101 1    
    76   38   39 2    
    77   38   40 1    
    78   40   41 1    
    79   40   42 1    
    80   40  102 1    
    81   41  103 1    
    82   41  104 1    
    83   41  105 1    
    84   42   43 am   BACKBONE|DICT|INTERRES
    85   42  106 1    
    86   43   44 2    
    87   43   45 1    
    88   45   46 1    
    89   45   49 1    
    90   45  107 1    
    91   46   47 1    
    92   46  108 1    
    93   46  109 1    
    94   47   48 1    
    95   48  110 1    
    96   48  111 1    
    97   49   50 am   BACKBONE|DICT|INTERRES
    98   49  112 1    
    99   50   51 2    
   100   50   52 1    
   101   52   53 1    
   102   52   54 1    
   103   52  113 1    
   104   53  114 1    
   105   53  115 1    
   106   53  116 1    
   107   54   55 am   BACKBONE|DICT|INTERRES
   108   54  117 1    
   109   55   56 2    
   110   55   57 1    
   111   57   58 1    
   112   57   59 1    
   113   57  118 1    
   114   58  119 1    
   115   58  120 1    
   116   58  121 1    
   117   59   60 am   BACKBONE|DICT|INTERRES
   118   59  122 1    
   119   60   61 2    
   120   60   62 1    
   121   62   63 1    
   122   62   64 1    
   123   62  123 1    
   124   63  124 1    
   125   63  125 1    
   126   63  126 1    
   127   64   65 am   BACKBONE|DICT|INTERRES
   128   64  127 1    
   129   65   66 2    
@<TRIPOS>SUBSTRUCTURE
     1 UNK         1 GROUP             0       ****    0 ROOT    
