@<TRIPOS>MOLECULE
3R135
127   129    1
SMALL
USER_CHARGES


@<TRIPOS>ATOM
      1 CA        -85.0377   24.9935  -73.6434 C.3       0 UNK        -0.1998 
      2 C         -84.3224   26.3335  -73.7301 C.2       0 UNK         0.4909 
      3 O         -84.9622   27.3564  -73.9763 O.2       0 UNK        -0.5240 
      4 N         -83.0013   26.3351  -73.5320 N.am      1 UNK        -0.4739 
      5 CA        -82.1305   27.5049  -73.6102 C.3       1 UNK         0.0864 
      6 C6        -82.0799   28.2652  -72.2614 C.3       11 UNK        -0.0881 
      7 S7        -81.3257   29.9232  -72.3914 S.3       11 UNK        -0.2682 
      8 C8        -80.0629   29.8701  -71.0788 C.3       11 UNK         0.0289 
      9 C9        -78.7709   29.2100  -71.5412 C.ar      11 UNK        -0.0687 
     10 C10       -78.5715   27.8366  -71.3725 C.ar      11 UNK        -0.0823 
     11 C11       -77.3771   27.2262  -71.7717 C.ar      11 UNK        -0.0830 
     12 C12       -76.3626   28.0225  -72.3214 C.ar      11 UNK        -0.1021 
     13 C13       -76.5549   29.3937  -72.5098 C.ar      11 UNK        -0.0753 
     14 C14       -77.7610   29.9818  -72.1210 C.ar      11 UNK        -0.0933 
     15 C15       -75.4678   30.2347  -73.1577 C.3       11 UNK         0.0166 
     16 S16       -74.5122   31.1589  -71.9183 S.3       11 UNK        -0.2615 
     17 C17       -73.2652   31.9636  -72.9873 C.3       11 UNK        -0.0865 
     18 CA        -71.7992   31.8152  -72.4868 C.3       10 UNK         0.0862 
     19 C         -71.5145   32.6535  -71.2105 C.2       10 UNK         0.5551 
     20 N         -71.5262   33.9750  -71.3221 N.am      10 UNK        -0.7319 
     21 O         -71.2851   32.1239  -70.1235 O.2       10 UNK        -0.5018 
     22 N         -71.4018   30.4142  -72.2879 N.am      10 UNK        -0.4509 
     23 C         -70.9024   29.5429  -73.1716 C.2       10 UNK         0.4899 
     24 O         -70.5533   28.4136  -72.8254 O.2       10 UNK        -0.4839 
     25 CA        -70.6977   29.9662  -74.6443 C.3       9 UNK         0.0222 
     26 CB        -69.3064   30.5977  -74.8321 C.3       9 UNK        -0.1966 
     27 N         -70.8172   28.8291  -75.5611 N.am      9 UNK        -0.4218 
     28 C         -71.9433   28.1420  -75.7918 C.2       9 UNK         0.5020 
     29 O         -73.0389   28.4293  -75.3026 O.2       9 UNK        -0.5274 
     30 CA        -71.8008   26.9080  -76.7010 C.3       8 UNK         0.0270 
     31 CB        -71.1958   25.7323  -75.9159 C.3       8 UNK        -0.1976 
     32 N         -73.0906   26.4989  -77.2620 N.am      8 UNK        -0.4313 
     33 C         -73.7316   27.1573  -78.2394 C.2       8 UNK         0.5041 
     34 O         -73.2399   28.1148  -78.8412 O.2       8 UNK        -0.5577 
     35 CA        -75.1616   26.6976  -78.5961 C.3       7 UNK         0.0284 
     36 CB        -75.5254   26.9523  -80.0746 C.3       7 UNK        -0.1958 
     37 N         -75.4641   25.3162  -78.2065 N.am      7 UNK        -0.4454 
     38 C         -74.9002   24.1902  -78.6697 C.2       7 UNK         0.5089 
     39 O         -74.0537   24.1640  -79.5645 O.2       7 UNK        -0.5125 
     40 CA        -75.3522   22.8728  -78.0026 C.3       6 UNK         0.0408 
     41 CB        -74.3164   21.7405  -78.1639 C.3       6 UNK        -0.1791 
     42 N         -75.7308   23.0255  -76.5905 N.am      6 UNK        -0.4762 
     43 C         -74.9649   23.4945  -75.5886 C.2       6 UNK         0.5007 
     44 O         -73.7998   23.8541  -75.7537 O.2       6 UNK        -0.5032 
     45 CA        -75.6003   23.6206  -74.1843 C.3       5 UNK         0.0783 
     46 C46       -75.2443   24.9775  -73.5208 C.3       11 UNK        -0.0857 
     47 S47       -75.5878   24.9907  -71.7271 S.3       11 UNK        -0.2512 
     48 C48       -77.2673   25.7060  -71.6298 C.3       11 UNK         0.0225 
     49 N         -77.0517   23.4545  -74.2706 N.am      5 UNK        -0.4615 
     50 C         -77.7483   22.3651  -73.9290 C.2       4 UNK         0.5053 
     51 O         -77.2476   21.3612  -73.4233 O.2       4 UNK        -0.5105 
     52 CA        -79.2611   22.3910  -74.2236 C.3       4 UNK         0.0263 
     53 CB        -80.0577   22.6393  -72.9325 C.3       4 UNK        -0.1981 
     54 N         -79.6348   23.3949  -75.2288 N.am      4 UNK        -0.4224 
     55 C         -79.3482   23.2941  -76.5376 C.2       3 UNK         0.4895 
     56 O         -78.7864   22.3181  -77.0340 O.2       3 UNK        -0.5091 
     57 CA        -79.6785   24.4995  -77.4396 C.3       3 UNK         0.0250 
     58 CB        -81.0758   24.3382  -78.0581 C.3       3 UNK        -0.1996 
     59 N         -79.5992   25.7923  -76.7536 N.am      3 UNK        -0.4254 
     60 C         -78.5060   26.2823  -76.1520 C.2       2 UNK         0.5004 
     61 O         -77.4088   25.7263  -76.1840 O.2       2 UNK        -0.5226 
     62 CA        -78.6677   27.5661  -75.3207 C.3       2 UNK         0.0269 
     63 CB        -78.1520   28.7880  -76.0948 C.3       2 UNK        -0.1926 
     64 N         -80.0305   27.8282  -74.8386 N.am      2 UNK        -0.4687 
     65 C         -80.7508   27.0041  -74.0640 C.2       1 UNK         0.5165 
     66 O         -80.3737   25.8776  -73.7254 O.2       1 UNK        -0.5079 
     67 H67       -85.7956   25.0229  -72.8610 H         1 UNK         0.0900 
     68 H68       -85.5316   24.7699  -74.5886 H         1 UNK         0.0900 
     69 H69       -84.3501   24.1782  -73.4188 H         1 UNK         0.0900 
     70 H70       -82.5007   25.4703  -73.3661 H         1 UNK         0.2959 
     71 H71       -82.5183   28.1716  -74.3841 H         1 UNK         0.1079 
     72 H72       -81.5795   27.6673  -71.4987 H         1 UNK         0.0837 
     73 H73       -83.0948   28.4164  -71.8902 H         1 UNK         0.0837 
     74 H74       -80.4597   29.3624  -70.1983 H         1 UNK         0.0685 
     75 H75       -79.8538   30.8930  -70.7619 H         1 UNK         0.0685 
     76 H76       -79.3563   27.2333  -70.9380 H         1 UNK         0.1434 
     77 H77       -75.4236   27.5873  -72.6294 H         1 UNK         0.1329 
     78 H78       -77.9088   31.0437  -72.2628 H         1 UNK         0.1335 
     79 H79       -75.9149   30.9324  -73.8675 H         1 UNK         0.0680 
     80 H80       -74.7935   29.5986  -73.7318 H         1 UNK         0.0680 
     81 H81       -73.3461   31.5552  -73.9946 H         1 UNK         0.1032 
     82 H82       -73.5325   33.0167  -73.0902 H         1 UNK         0.1032 
     83 H83       -71.1455   32.2451  -73.2457 H         1 UNK         0.0461 
     84 H84       -71.3457   34.5351  -70.5034 H         1 UNK         0.3453 
     85 H85       -71.7049   34.4266  -72.2055 H         1 UNK         0.3453 
     86 H86       -71.4736   30.1266  -71.3213 H         1 UNK         0.2984 
     87 H87       -71.4573   30.6912  -74.9348 H         1 UNK         0.0554 
     88 H88       -69.1656   31.4592  -74.1789 H         1 UNK         0.0847 
     89 H89       -69.1622   30.9451  -75.8554 H         1 UNK         0.0847 
     90 H90       -68.5090   29.8895  -74.6026 H         1 UNK         0.0847 
     91 H91       -69.9586   28.4958  -75.9744 H         1 UNK         0.3141 
     92 H92       -71.1308   27.1576  -77.5267 H         1 UNK         0.0743 
     93 H93       -71.7904   25.4905  -75.0339 H         1 UNK         0.0784 
     94 H94       -71.1283   24.8345  -76.5308 H         1 UNK         0.0784 
     95 H95       -70.1878   25.9655  -75.5709 H         1 UNK         0.0784 
     96 H96       -73.5504   25.7172  -76.8097 H         1 UNK         0.3213 
     97 H97       -75.8219   27.3198  -77.9914 H         1 UNK         0.0855 
     98 H98       -74.8562   26.4239  -80.7538 H         1 UNK         0.0814 
     99 H99       -75.4590   28.0137  -80.3166 H         1 UNK         0.0814 
    100 H100      -76.5455   26.6362  -80.2923 H         1 UNK         0.0814 
    101 H101      -76.1425   25.2329  -77.4505 H         1 UNK         0.3105 
    102 H102      -76.2593   22.5673  -78.5261 H         1 UNK         0.0547 
    103 H103      -74.6624   20.8168  -77.7005 H         1 UNK         0.0837 
    104 H104      -73.3576   22.0029  -77.7156 H         1 UNK         0.0837 
    105 H105      -74.1334   21.5231  -79.2169 H         1 UNK         0.0837 
    106 H106      -76.6863   22.7685  -76.3749 H         1 UNK         0.3020 
    107 H107      -75.1645   22.8175  -73.5858 H         1 UNK         0.1245 
    108 H108      -75.7695   25.7954  -74.0158 H         1 UNK         0.0781 
    109 H109      -74.1806   25.2004  -73.6241 H         1 UNK         0.0781 
    110 H110      -77.6837   25.4149  -70.6643 H         1 UNK         0.0836 
    111 H111      -77.9029   25.2419  -72.3835 H         1 UNK         0.0836 
    112 H112      -77.5369   24.2195  -74.7235 H         1 UNK         0.3022 
    113 H113      -79.5361   21.4064  -74.6081 H         1 UNK         0.0747 
    114 H114      -81.1315   22.6324  -73.1198 H         1 UNK         0.0793 
    115 H115      -79.8529   21.8629  -72.1940 H         1 UNK         0.0793 
    116 H116      -79.8024   23.5955  -72.4752 H         1 UNK         0.0793 
    117 H117      -80.0503   24.2519  -74.8758 H         1 UNK         0.3047 
    118 H118      -78.9434   24.5120  -78.2474 H         1 UNK         0.0822 
    119 H119      -81.2886   25.1339  -78.7723 H         1 UNK         0.0807 
    120 H120      -81.8585   24.3490  -77.2983 H         1 UNK         0.0807 
    121 H121      -81.1574   23.3928  -78.5967 H         1 UNK         0.0807 
    122 H122      -80.4557   26.3209  -76.6772 H         1 UNK         0.2946 
    123 H123      -78.0385   27.4368  -74.4409 H         1 UNK         0.1144 
    124 H124      -78.1756   29.6855  -75.4762 H         1 UNK         0.0793 
    125 H125      -78.7425   28.9785  -76.9917 H         1 UNK         0.0793 
    126 H126      -77.1166   28.6441  -76.4056 H         1 UNK         0.0793 
    127 H127      -80.4105   28.7396  -75.0524 H         1 UNK         0.2896 
@<TRIPOS>BOND
     1    1    2 1    
     2    1   67 1    
     3    1   68 1    
     4    1   69 1    
     5    2    3 2    
     6    2    4 am   BACKBONE|DICT|INTERRES
     7    4    5 1    
     8    4   70 1    
     9    5    6 1    
    10    5   65 1    
    11    5   71 1    
    12    6    7 1    
    13    6   72 1    
    14    6   73 1    
    15    7    8 1    
    16    8    9 1    
    17    8   74 1    
    18    8   75 1    
    19    9   10 ar   
    20    9   14 ar   
    21   10   11 ar   
    22   10   76 1    
    23   11   12 ar   
    24   11   48 1    
    25   12   13 ar   
    26   12   77 1    
    27   13   14 ar   
    28   13   15 1    
    29   14   78 1    
    30   15   16 1    
    31   15   79 1    
    32   15   80 1    
    33   16   17 1    
    34   17   18 1    
    35   17   81 1    
    36   17   82 1    
    37   18   19 1    
    38   18   22 1    
    39   18   83 1    
    40   19   20 am   BACKBONE|DICT|INTERRES
    41   19   21 2    
    42   20   84 1    
    43   20   85 1    
    44   22   23 am   BACKBONE|DICT|INTERRES
    45   22   86 1    
    46   23   24 2    
    47   23   25 1    
    48   25   26 1    
    49   25   27 1    
    50   25   87 1    
    51   26   88 1    
    52   26   89 1    
    53   26   90 1    
    54   27   28 am   BACKBONE|DICT|INTERRES
    55   27   91 1    
    56   28   29 2    
    57   28   30 1    
    58   30   31 1    
    59   30   32 1    
    60   30   92 1    
    61   31   93 1    
    62   31   94 1    
    63   31   95 1    
    64   32   33 am   BACKBONE|DICT|INTERRES
    65   32   96 1    
    66   33   34 2    
    67   33   35 1    
    68   35   36 1    
    69   35   37 1    
    70   35   97 1    
    71   36   98 1    
    72   36   99 1    
    73   36  100 1    
    74   37   38 am   BACKBONE|DICT|INTERRES
    75   37  101 1    
    76   38   39 2    
    77   38   40 1    
    78   40   41 1    
    79   40   42 1    
    80   40  102 1    
    81   41  103 1    
    82   41  104 1    
    83   41  105 1    
    84   42   43 am   BACKBONE|DICT|INTERRES
    85   42  106 1    
    86   43   44 2    
    87   43   45 1    
    88   45   46 1    
    89   45   49 1    
    90   45  107 1    
    91   46   47 1    
    92   46  108 1    
    93   46  109 1    
    94   47   48 1    
    95   48  110 1    
    96   48  111 1    
    97   49   50 am   BACKBONE|DICT|INTERRES
    98   49  112 1    
    99   50   51 2    
   100   50   52 1    
   101   52   53 1    
   102   52   54 1    
   103   52  113 1    
   104   53  114 1    
   105   53  115 1    
   106   53  116 1    
   107   54   55 am   BACKBONE|DICT|INTERRES
   108   54  117 1    
   109   55   56 2    
   110   55   57 1    
   111   57   58 1    
   112   57   59 1    
   113   57  118 1    
   114   58  119 1    
   115   58  120 1    
   116   58  121 1    
   117   59   60 am   BACKBONE|DICT|INTERRES
   118   59  122 1    
   119   60   61 2    
   120   60   62 1    
   121   62   63 1    
   122   62   64 1    
   123   62  123 1    
   124   63  124 1    
   125   63  125 1    
   126   63  126 1    
   127   64   65 am   BACKBONE|DICT|INTERRES
   128   64  127 1    
   129   65   66 2    
@<TRIPOS>SUBSTRUCTURE
     1 UNK         1 GROUP             0       ****    0 ROOT    
