@<TRIPOS>MOLECULE
3R135
127   129    1
SMALL
USER_CHARGES


@<TRIPOS>ATOM
      1 CA        -83.5094   26.9790  -70.6379 C.3       0 UNK        -0.1998 
      2 C         -83.3886   27.3359  -72.1117 C.2       0 UNK         0.4909 
      3 O         -84.3683   27.2324  -72.8502 O.2       0 UNK        -0.5240 
      4 N         -82.1925   27.7570  -72.5425 N.am      1 UNK        -0.4739 
      5 CA        -81.8806   28.1228  -73.9305 C.3       1 UNK         0.0864 
      6 C6        -80.5736   28.9502  -74.0153 C.3       11 UNK        -0.0881 
      7 S7        -80.7465   30.6392  -73.3287 S.3       11 UNK        -0.2682 
      8 C8        -80.2337   30.4972  -71.5788 C.3       11 UNK         0.0289 
      9 C9        -78.8428   29.9007  -71.4161 C.ar      11 UNK        -0.0687 
     10 C10       -78.6993   28.5955  -70.9398 C.ar      11 UNK        -0.0823 
     11 C11       -77.4414   27.9907  -70.9028 C.ar      11 UNK        -0.0830 
     12 C12       -76.3130   28.7224  -71.2819 C.ar      11 UNK        -0.1021 
     13 C13       -76.4341   30.0483  -71.7118 C.ar      11 UNK        -0.0753 
     14 C14       -77.7054   30.6305  -71.7797 C.ar      11 UNK        -0.0933 
     15 C15       -75.2077   30.8270  -72.1766 C.3       11 UNK         0.0166 
     16 S16       -73.8061   30.6928  -71.0181 S.3       11 UNK        -0.2615 
     17 C17       -72.5467   31.7162  -71.8572 C.3       11 UNK        -0.0865 
     18 CA        -71.4825   30.9116  -72.6542 C.3       10 UNK         0.0862 
     19 C         -70.5387   30.0341  -71.7812 C.2       10 UNK         0.5551 
     20 N         -70.0602   28.8955  -72.2725 N.am      10 UNK        -0.7319 
     21 O         -70.2103   30.3982  -70.6545 O.2       10 UNK        -0.5018 
     22 N         -72.0748   30.1681  -73.7755 N.am      10 UNK        -0.4509 
     23 C         -72.0593   30.5537  -75.0551 C.2       10 UNK         0.4899 
     24 O         -71.6402   31.6508  -75.4285 O.2       10 UNK        -0.4839 
     25 CA        -72.6012   29.5543  -76.0995 C.3       9 UNK         0.0222 
     26 CB        -71.8965   29.7091  -77.4638 C.3       9 UNK        -0.1966 
     27 N         -72.5857   28.1430  -75.6869 N.am      9 UNK        -0.4218 
     28 C         -71.5312   27.3996  -75.3167 C.2       9 UNK         0.5020 
     29 O         -70.4027   27.8507  -75.1150 O.2       9 UNK        -0.5274 
     30 CA        -71.7800   25.8921  -75.1305 C.3       8 UNK         0.0270 
     31 CB        -72.3355   25.6032  -73.7261 C.3       8 UNK        -0.1976 
     32 N         -72.6733   25.3282  -76.1496 N.am      8 UNK        -0.4313 
     33 C         -72.3718   25.2249  -77.4537 C.2       8 UNK         0.5041 
     34 O         -71.2765   25.5279  -77.9290 O.2       8 UNK        -0.5577 
     35 CA        -73.4755   24.7075  -78.3944 C.3       7 UNK         0.0284 
     36 CB        -73.5399   23.1718  -78.3772 C.3       7 UNK        -0.1958 
     37 N         -74.7920   25.2655  -78.0786 N.am      7 UNK        -0.4454 
     38 C         -75.1337   26.5499  -78.2584 C.2       7 UNK         0.5089 
     39 O         -74.4113   27.3817  -78.8066 O.2       7 UNK        -0.5125 
     40 CA        -76.4984   26.9948  -77.7023 C.3       6 UNK         0.0408 
     41 CB        -77.6139   26.7585  -78.7315 C.3       6 UNK        -0.1791 
     42 N         -76.8439   26.3358  -76.4405 N.am      6 UNK        -0.4762 
     43 C         -76.1504   26.4584  -75.2998 C.2       6 UNK         0.5007 
     44 O         -75.1654   27.1847  -75.1748 O.2       6 UNK        -0.5032 
     45 CA        -76.6057   25.5935  -74.1104 C.3       5 UNK         0.0783 
     46 C46       -77.8073   26.2480  -73.4028 C.3       11 UNK        -0.0857 
     47 S47       -78.2122   25.4679  -71.7991 S.3       11 UNK        -0.2512 
     48 C48       -77.3180   26.5076  -70.5868 C.3       11 UNK         0.0225 
     49 N         -76.8960   24.2231  -74.5309 N.am      5 UNK        -0.4615 
     50 C         -75.9849   23.3549  -74.9850 C.2       4 UNK         0.5053 
     51 O         -74.7800   23.5977  -75.0437 O.2       4 UNK        -0.5105 
     52 CA        -76.5199   22.0091  -75.5027 C.3       4 UNK         0.0263 
     53 CB        -76.6955   21.0162  -74.3431 C.3       4 UNK        -0.1981 
     54 N         -77.7884   22.1524  -76.2253 N.am      4 UNK        -0.4224 
     55 C         -77.9213   22.7950  -77.3954 C.2       3 UNK         0.4895 
     56 O         -76.9764   23.2762  -78.0202 O.2       3 UNK        -0.5091 
     57 CA        -79.3532   22.9748  -77.9336 C.3       3 UNK         0.0250 
     58 CB        -79.7910   21.7355  -78.7301 C.3       3 UNK        -0.1996 
     59 N         -80.3422   23.2661  -76.8868 N.am      3 UNK        -0.4254 
     60 C         -80.3076   24.3449  -76.0910 C.2       2 UNK         0.5004 
     61 O         -79.4333   25.2086  -76.1687 O.2       2 UNK        -0.5226 
     62 CA        -81.3872   24.4255  -74.9940 C.3       2 UNK         0.0269 
     63 CB        -81.1464   23.3422  -73.9269 C.3       2 UNK        -0.1926 
     64 N         -81.4474   25.7244  -74.3132 N.am      2 UNK        -0.4687 
     65 C         -81.8312   26.8874  -74.8623 C.2       1 UNK         0.5165 
     66 O         -82.1787   27.0049  -76.0385 O.2       1 UNK        -0.5079 
     67 H67       -82.5697   27.1205  -70.1042 H         1 UNK         0.0900 
     68 H68       -84.2662   27.6022  -70.1623 H         1 UNK         0.0900 
     69 H69       -83.8078   25.9367  -70.5280 H         1 UNK         0.0900 
     70 H70       -81.4289   27.8298  -71.8888 H         1 UNK         0.2959 
     71 H71       -82.6972   28.7473  -74.3008 H         1 UNK         0.1079 
     72 H72       -80.2741   29.0733  -75.0583 H         1 UNK         0.0837 
     73 H73       -79.7475   28.4274  -73.5365 H         1 UNK         0.0837 
     74 H74       -80.2496   31.4911  -71.1294 H         1 UNK         0.0685 
     75 H75       -80.9755   29.9110  -71.0350 H         1 UNK         0.0685 
     76 H76       -79.5710   28.0181  -70.6665 H         1 UNK         0.1434 
     77 H77       -75.3405   28.2495  -71.2790 H         1 UNK         0.1329 
     78 H78       -77.8185   31.6404  -72.1500 H         1 UNK         0.1335 
     79 H79       -74.9055   30.4507  -73.1548 H         1 UNK         0.0680 
     80 H80       -75.4538   31.8820  -72.3070 H         1 UNK         0.0680 
     81 H81       -73.0406   32.4247  -72.5238 H         1 UNK         0.1032 
     82 H82       -72.0570   32.3327  -71.1014 H         1 UNK         0.1032 
     83 H83       -70.7967   31.6537  -73.0669 H         1 UNK         0.0461 
     84 H84       -69.4416   28.3403  -71.7032 H         1 UNK         0.3453 
     85 H85       -70.2372   28.6260  -73.2337 H         1 UNK         0.3453 
     86 H86       -72.4344   29.2525  -73.5483 H         1 UNK         0.2984 
     87 H87       -73.6527   29.8082  -76.2402 H         1 UNK         0.0554 
     88 H88       -72.0297   30.7136  -77.8671 H         1 UNK         0.0847 
     89 H89       -72.2985   29.0125  -78.1994 H         1 UNK         0.0847 
     90 H90       -70.8241   29.5278  -77.3845 H         1 UNK         0.0847 
     91 H91       -73.4966   27.6848  -75.6986 H         1 UNK         0.3141 
     92 H92       -70.8162   25.3868  -75.2218 H         1 UNK         0.0743 
     93 H93       -73.3016   26.0805  -73.5636 H         1 UNK         0.0784 
     94 H94       -72.4604   24.5326  -73.5623 H         1 UNK         0.0784 
     95 H95       -71.6569   25.9718  -72.9555 H         1 UNK         0.0784 
     96 H96       -73.5697   24.9732  -75.8292 H         1 UNK         0.3213 
     97 H97       -73.2170   25.0203  -79.4085 H         1 UNK         0.0855 
     98 H98       -73.7932   22.7855  -77.3902 H         1 UNK         0.0814 
     99 H99       -72.5789   22.7394  -78.6588 H         1 UNK         0.0814 
    100 H100      -74.2830   22.7985  -79.0822 H         1 UNK         0.0814 
    101 H101      -75.4889   24.6285  -77.7054 H         1 UNK         0.3105 
    102 H102      -76.4413   28.0674  -77.5054 H         1 UNK         0.0547 
    103 H103      -77.4097   27.2980  -79.6571 H         1 UNK         0.0837 
    104 H104      -77.7127   25.7033  -78.9853 H         1 UNK         0.0837 
    105 H105      -78.5784   27.1042  -78.3587 H         1 UNK         0.0837 
    106 H106      -77.6904   25.7685  -76.4334 H         1 UNK         0.3020 
    107 H107      -75.7718   25.5584  -73.4058 H         1 UNK         0.1245 
    108 H108      -78.6979   26.1852  -74.0228 H         1 UNK         0.0781 
    109 H109      -77.6377   27.3166  -73.2904 H         1 UNK         0.0781 
    110 H110      -76.2708   26.2014  -70.5699 H         1 UNK         0.0836 
    111 H111      -77.7112   26.3138  -69.5880 H         1 UNK         0.0836 
    112 H112      -77.8693   23.9607  -74.5453 H         1 UNK         0.3022 
    113 H113      -75.7798   21.6014  -76.1946 H         1 UNK         0.0747 
    114 H114      -77.0036   20.0349  -74.7044 H         1 UNK         0.0793 
    115 H115      -75.7577   20.8806  -73.8024 H         1 UNK         0.0793 
    116 H116      -77.4399   21.3590  -73.6231 H         1 UNK         0.0793 
    117 H117      -78.6149   21.7748  -75.7859 H         1 UNK         0.3047 
    118 H118      -79.3385   23.8276  -78.6155 H         1 UNK         0.0822 
    119 H119      -80.7616   21.8895  -79.2021 H         1 UNK         0.0807 
    120 H120      -79.8609   20.8494  -78.0979 H         1 UNK         0.0807 
    121 H121      -79.0786   21.5125  -79.5259 H         1 UNK         0.0807 
    122 H122      -81.0864   22.5934  -76.7677 H         1 UNK         0.2946 
    123 H123      -82.3559   24.2520  -75.4679 H         1 UNK         0.1144 
    124 H124      -81.9231   23.3618  -73.1619 H         1 UNK         0.0793 
    125 H125      -80.1852   23.4735  -73.4280 H         1 UNK         0.0793 
    126 H126      -81.1558   22.3415  -74.3603 H         1 UNK         0.0793 
    127 H127      -81.1792   25.7323  -73.3406 H         1 UNK         0.2896 
@<TRIPOS>BOND
     1    1    2 1    
     2    1   67 1    
     3    1   68 1    
     4    1   69 1    
     5    2    3 2    
     6    2    4 am   BACKBONE|DICT|INTERRES
     7    4    5 1    
     8    4   70 1    
     9    5    6 1    
    10    5   65 1    
    11    5   71 1    
    12    6    7 1    
    13    6   72 1    
    14    6   73 1    
    15    7    8 1    
    16    8    9 1    
    17    8   74 1    
    18    8   75 1    
    19    9   10 ar   
    20    9   14 ar   
    21   10   11 ar   
    22   10   76 1    
    23   11   12 ar   
    24   11   48 1    
    25   12   13 ar   
    26   12   77 1    
    27   13   14 ar   
    28   13   15 1    
    29   14   78 1    
    30   15   16 1    
    31   15   79 1    
    32   15   80 1    
    33   16   17 1    
    34   17   18 1    
    35   17   81 1    
    36   17   82 1    
    37   18   19 1    
    38   18   22 1    
    39   18   83 1    
    40   19   20 am   BACKBONE|DICT|INTERRES
    41   19   21 2    
    42   20   84 1    
    43   20   85 1    
    44   22   23 am   BACKBONE|DICT|INTERRES
    45   22   86 1    
    46   23   24 2    
    47   23   25 1    
    48   25   26 1    
    49   25   27 1    
    50   25   87 1    
    51   26   88 1    
    52   26   89 1    
    53   26   90 1    
    54   27   28 am   BACKBONE|DICT|INTERRES
    55   27   91 1    
    56   28   29 2    
    57   28   30 1    
    58   30   31 1    
    59   30   32 1    
    60   30   92 1    
    61   31   93 1    
    62   31   94 1    
    63   31   95 1    
    64   32   33 am   BACKBONE|DICT|INTERRES
    65   32   96 1    
    66   33   34 2    
    67   33   35 1    
    68   35   36 1    
    69   35   37 1    
    70   35   97 1    
    71   36   98 1    
    72   36   99 1    
    73   36  100 1    
    74   37   38 am   BACKBONE|DICT|INTERRES
    75   37  101 1    
    76   38   39 2    
    77   38   40 1    
    78   40   41 1    
    79   40   42 1    
    80   40  102 1    
    81   41  103 1    
    82   41  104 1    
    83   41  105 1    
    84   42   43 am   BACKBONE|DICT|INTERRES
    85   42  106 1    
    86   43   44 2    
    87   43   45 1    
    88   45   46 1    
    89   45   49 1    
    90   45  107 1    
    91   46   47 1    
    92   46  108 1    
    93   46  109 1    
    94   47   48 1    
    95   48  110 1    
    96   48  111 1    
    97   49   50 am   BACKBONE|DICT|INTERRES
    98   49  112 1    
    99   50   51 2    
   100   50   52 1    
   101   52   53 1    
   102   52   54 1    
   103   52  113 1    
   104   53  114 1    
   105   53  115 1    
   106   53  116 1    
   107   54   55 am   BACKBONE|DICT|INTERRES
   108   54  117 1    
   109   55   56 2    
   110   55   57 1    
   111   57   58 1    
   112   57   59 1    
   113   57  118 1    
   114   58  119 1    
   115   58  120 1    
   116   58  121 1    
   117   59   60 am   BACKBONE|DICT|INTERRES
   118   59  122 1    
   119   60   61 2    
   120   60   62 1    
   121   62   63 1    
   122   62   64 1    
   123   62  123 1    
   124   63  124 1    
   125   63  125 1    
   126   63  126 1    
   127   64   65 am   BACKBONE|DICT|INTERRES
   128   64  127 1    
   129   65   66 2    
@<TRIPOS>SUBSTRUCTURE
     1 UNK         1 GROUP             0       ****    0 ROOT    
