@<TRIPOS>MOLECULE
3R135
127   129    1
SMALL
USER_CHARGES


@<TRIPOS>ATOM
      1 CA        -83.0915   29.7848  -76.8437 C.3       0 UNK        -0.1998 
      2 C         -82.2317   28.9341  -75.9208 C.2       0 UNK         0.4909 
      3 O         -81.3240   28.2487  -76.3911 O.2       0 UNK        -0.5240 
      4 N         -82.5066   28.9806  -74.6113 N.am      1 UNK        -0.4739 
      5 CA        -81.8142   28.2090  -73.5721 C.3       1 UNK         0.0864 
      6 C6        -82.1809   28.7049  -72.1518 C.3       11 UNK        -0.0881 
      7 S7        -81.7681   30.4703  -71.9225 S.3       11 UNK        -0.2682 
      8 C8        -80.4807   30.4183  -70.6361 C.3       11 UNK         0.0289 
      9 C9        -79.2268   29.6786  -71.0834 C.ar      11 UNK        -0.0687 
     10 C10       -78.8886   28.4556  -70.4956 C.ar      11 UNK        -0.0823 
     11 C11       -77.7193   27.7827  -70.8613 C.ar      11 UNK        -0.0830 
     12 C12       -76.8921   28.3501  -71.8378 C.ar      11 UNK        -0.1021 
     13 C13       -77.2109   29.5727  -72.4303 C.ar      11 UNK        -0.0753 
     14 C14       -78.3830   30.2336  -72.0513 C.ar      11 UNK        -0.0933 
     15 C15       -76.2810   30.1752  -73.4738 C.3       11 UNK         0.0166 
     16 S16       -75.1170   31.3667  -72.7387 S.3       11 UNK        -0.2615 
     17 C17       -73.9238   30.2784  -71.8784 C.3       11 UNK        -0.0865 
     18 CA        -72.5120   30.3078  -72.5202 C.3       10 UNK         0.0862 
     19 C         -71.4573   29.5748  -71.6370 C.2       10 UNK         0.5551 
     20 N         -70.6354   28.6762  -72.1679 N.am      10 UNK        -0.7319 
     21 O         -71.3724   29.8372  -70.4398 O.2       10 UNK        -0.5018 
     22 N         -72.5400   29.8463  -73.9177 N.am      10 UNK        -0.4509 
     23 C         -71.7359   30.3078  -74.8822 C.2       10 UNK         0.4899 
     24 O         -70.9239   31.2207  -74.7202 O.2       10 UNK        -0.4839 
     25 CA        -71.8591   29.6193  -76.2546 C.3       9 UNK         0.0222 
     26 CB        -70.7160   29.9976  -77.2201 C.3       9 UNK        -0.1966 
     27 N         -71.9913   28.1587  -76.1706 N.am      9 UNK        -0.4218 
     28 C         -71.1375   27.2920  -75.5986 C.2       9 UNK         0.5020 
     29 O         -70.1413   27.6417  -74.9639 O.2       9 UNK        -0.5274 
     30 CA        -71.4255   25.7819  -75.7377 C.3       8 UNK         0.0270 
     31 CB        -71.6085   25.1240  -74.3587 C.3       8 UNK        -0.1976 
     32 N         -72.5868   25.4798  -76.5788 N.am      8 UNK        -0.4313 
     33 C         -72.5969   25.5252  -77.9186 C.2       8 UNK         0.5041 
     34 O         -71.5934   25.7323  -78.6017 O.2       8 UNK        -0.5577 
     35 CA        -73.9589   25.3566  -78.6184 C.3       7 UNK         0.0284 
     36 CB        -74.1610   23.8975  -79.0554 C.3       7 UNK        -0.1958 
     37 N         -75.1008   25.7947  -77.8052 N.am      7 UNK        -0.4454 
     38 C         -75.2948   27.0512  -77.3748 C.2       7 UNK         0.5089 
     39 O         -74.5445   27.9880  -77.6462 O.2       7 UNK        -0.5125 
     40 CA        -76.4786   27.2916  -76.4252 C.3       6 UNK         0.0408 
     41 CB        -77.7994   27.3961  -77.2013 C.3       6 UNK        -0.1791 
     42 N         -76.5873   26.2479  -75.4069 N.am      6 UNK        -0.4762 
     43 C         -75.6869   25.9983  -74.4457 C.2       6 UNK         0.5007 
     44 O         -74.6913   26.6963  -74.2511 O.2       6 UNK        -0.5032 
     45 CA        -75.9082   24.7171  -73.6131 C.3       5 UNK         0.0783 
     46 C46       -76.8859   24.9228  -72.4300 C.3       11 UNK        -0.0857 
     47 S47       -76.0490   25.4770  -70.9127 S.3       11 UNK        -0.2512 
     48 C48       -77.3749   26.4735  -70.1471 C.3       11 UNK         0.0225 
     49 N         -76.3671   23.6193  -74.4631 N.am      5 UNK        -0.4615 
     50 C         -75.5951   22.9124  -75.2945 C.2       4 UNK         0.5053 
     51 O         -74.3871   23.1004  -75.4315 O.2       4 UNK        -0.5105 
     52 CA        -76.2969   21.8178  -76.1181 C.3       4 UNK         0.0263 
     53 CB        -76.2472   20.4741  -75.3741 C.3       4 UNK        -0.1981 
     54 N         -77.6907   22.1438  -76.4421 N.am      4 UNK        -0.4224 
     55 C         -78.0522   23.1185  -77.2875 C.2       3 UNK         0.4895 
     56 O         -77.2505   23.8383  -77.8826 O.2       3 UNK        -0.5091 
     57 CA        -79.5609   23.3614  -77.4673 C.3       3 UNK         0.0250 
     58 CB        -80.1813   22.2797  -78.3668 C.3       3 UNK        -0.1996 
     59 N         -80.3334   23.4728  -76.2205 N.am      3 UNK        -0.4254 
     60 C         -80.0533   24.3092  -75.2113 C.2       2 UNK         0.5004 
     61 O         -79.0069   24.9523  -75.1215 O.2       2 UNK        -0.5226 
     62 CA        -81.1016   24.4698  -74.1061 C.3       2 UNK         0.0269 
     63 CB        -80.7601   23.5873  -72.8950 C.3       2 UNK        -0.1926 
     64 N         -81.0722   25.8762  -73.7078 N.am      2 UNK        -0.4687 
     65 C         -82.1199   26.7048  -73.7318 C.2       1 UNK         0.5165 
     66 O         -83.2867   26.3327  -73.8836 O.2       1 UNK        -0.5079 
     67 H67       -83.8451   30.3488  -76.2942 H         1 UNK         0.0900 
     68 H68       -83.6027   29.1518  -77.5684 H         1 UNK         0.0900 
     69 H69       -82.4685   30.4932  -77.3889 H         1 UNK         0.0900 
     70 H70       -83.2658   29.5598  -74.2829 H         1 UNK         0.2959 
     71 H71       -80.7410   28.3586  -73.7155 H         1 UNK         0.1079 
     72 H72       -81.6711   28.1085  -71.3933 H         1 UNK         0.0837 
     73 H73       -83.2491   28.5785  -71.9648 H         1 UNK         0.0837 
     74 H74       -80.2122   31.4414  -70.3692 H         1 UNK         0.0685 
     75 H75       -80.8985   29.9697  -69.7334 H         1 UNK         0.0685 
     76 H76       -79.5304   28.0327  -69.7343 H         1 UNK         0.1434 
     77 H77       -75.9829   27.8530  -72.1377 H         1 UNK         0.1329 
     78 H78       -78.6343   31.1846  -72.5009 H         1 UNK         0.1335 
     79 H79       -76.8695   30.6810  -74.2406 H         1 UNK         0.0680 
     80 H80       -75.7181   29.3938  -73.9853 H         1 UNK         0.0680 
     81 H81       -73.8800   30.6152  -70.8410 H         1 UNK         0.1032 
     82 H82       -74.2895   29.2541  -71.8403 H         1 UNK         0.1032 
     83 H83       -72.1963   31.3529  -72.5170 H         1 UNK         0.0461 
     84 H84       -70.6460   28.4700  -73.1601 H         1 UNK         0.3453 
     85 H85       -69.9600   28.2229  -71.5738 H         1 UNK         0.3453 
     86 H86       -73.1548   29.0715  -74.1236 H         1 UNK         0.2984 
     87 H87       -72.7904   29.9830  -76.6908 H         1 UNK         0.0554 
     88 H88       -70.8462   29.5237  -78.1930 H         1 UNK         0.0847 
     89 H89       -69.7423   29.6995  -76.8295 H         1 UNK         0.0847 
     90 H90       -70.6838   31.0748  -77.3879 H         1 UNK         0.0847 
     91 H91       -72.8082   27.7851  -76.6437 H         1 UNK         0.3141 
     92 H92       -70.5450   25.3344  -76.2033 H         1 UNK         0.0743 
     93 H93       -71.8132   24.0570  -74.4503 H         1 UNK         0.0784 
     94 H94       -70.7059   25.2287  -73.7552 H         1 UNK         0.0784 
     95 H95       -72.4241   25.5752  -73.7952 H         1 UNK         0.0784 
     96 H96       -73.4506   25.2635  -76.0984 H         1 UNK         0.3213 
     97 H97       -73.9406   25.9798  -79.5151 H         1 UNK         0.0855 
     98 H98       -73.3444   23.5663  -79.6983 H         1 UNK         0.0814 
     99 H99       -75.0860   23.7749  -79.6190 H         1 UNK         0.0814 
    100 H100      -74.1956   23.2228  -78.2003 H         1 UNK         0.0814 
    101 H101      -75.8075   25.0937  -77.5947 H         1 UNK         0.3105 
    102 H102      -76.3115   28.2418  -75.9168 H         1 UNK         0.0547 
    103 H103      -77.7531   28.1891  -77.9484 H         1 UNK         0.0837 
    104 H104      -78.0402   26.4688  -77.7215 H         1 UNK         0.0837 
    105 H105      -78.6306   27.6264  -76.5345 H         1 UNK         0.0837 
    106 H106      -77.4196   25.6595  -75.4471 H         1 UNK         0.3020 
    107 H107      -74.9335   24.4257  -73.2135 H         1 UNK         0.1245 
    108 H108      -77.3677   23.9790  -72.1697 H         1 UNK         0.0781 
    109 H109      -77.6989   25.6010  -72.6969 H         1 UNK         0.0781 
    110 H110      -77.0725   26.7117  -69.1265 H         1 UNK         0.0836 
    111 H111      -78.2697   25.8540  -70.0661 H         1 UNK         0.0836 
    112 H112      -77.3637   23.4555  -74.4775 H         1 UNK         0.3022 
    113 H113      -75.7482   21.7073  -77.0556 H         1 UNK         0.0747 
    114 H114      -76.6693   19.6702  -75.9776 H         1 UNK         0.0793 
    115 H115      -75.2182   20.1957  -75.1415 H         1 UNK         0.0793 
    116 H116      -76.7954   20.5116  -74.4318 H         1 UNK         0.0793 
    117 H117      -78.4123   21.6023  -75.9884 H         1 UNK         0.3047 
    118 H118      -79.6630   24.3192  -77.9821 H         1 UNK         0.0822 
    119 H119      -80.1789   21.3006  -77.8863 H         1 UNK         0.0807 
    120 H120      -79.6284   22.1850  -79.3028 H         1 UNK         0.0807 
    121 H121      -81.2116   22.5230  -78.6273 H         1 UNK         0.0807 
    122 H122      -81.2042   22.9617  -76.1930 H         1 UNK         0.2946 
    123 H123      -82.0825   24.1920  -74.4990 H         1 UNK         0.1144 
    124 H124      -80.7453   22.5319  -73.1700 H         1 UNK         0.0793 
    125 H125      -79.7838   23.8321  -72.4767 H         1 UNK         0.0793 
    126 H126      -81.4994   23.7057  -72.1027 H         1 UNK         0.0793 
    127 H127      -80.1402   26.2668  -73.6572 H         1 UNK         0.2896 
@<TRIPOS>BOND
     1    1    2 1    
     2    1   67 1    
     3    1   68 1    
     4    1   69 1    
     5    2    3 2    
     6    2    4 am   BACKBONE|DICT|INTERRES
     7    4    5 1    
     8    4   70 1    
     9    5    6 1    
    10    5   65 1    
    11    5   71 1    
    12    6    7 1    
    13    6   72 1    
    14    6   73 1    
    15    7    8 1    
    16    8    9 1    
    17    8   74 1    
    18    8   75 1    
    19    9   10 ar   
    20    9   14 ar   
    21   10   11 ar   
    22   10   76 1    
    23   11   12 ar   
    24   11   48 1    
    25   12   13 ar   
    26   12   77 1    
    27   13   14 ar   
    28   13   15 1    
    29   14   78 1    
    30   15   16 1    
    31   15   79 1    
    32   15   80 1    
    33   16   17 1    
    34   17   18 1    
    35   17   81 1    
    36   17   82 1    
    37   18   19 1    
    38   18   22 1    
    39   18   83 1    
    40   19   20 am   BACKBONE|DICT|INTERRES
    41   19   21 2    
    42   20   84 1    
    43   20   85 1    
    44   22   23 am   BACKBONE|DICT|INTERRES
    45   22   86 1    
    46   23   24 2    
    47   23   25 1    
    48   25   26 1    
    49   25   27 1    
    50   25   87 1    
    51   26   88 1    
    52   26   89 1    
    53   26   90 1    
    54   27   28 am   BACKBONE|DICT|INTERRES
    55   27   91 1    
    56   28   29 2    
    57   28   30 1    
    58   30   31 1    
    59   30   32 1    
    60   30   92 1    
    61   31   93 1    
    62   31   94 1    
    63   31   95 1    
    64   32   33 am   BACKBONE|DICT|INTERRES
    65   32   96 1    
    66   33   34 2    
    67   33   35 1    
    68   35   36 1    
    69   35   37 1    
    70   35   97 1    
    71   36   98 1    
    72   36   99 1    
    73   36  100 1    
    74   37   38 am   BACKBONE|DICT|INTERRES
    75   37  101 1    
    76   38   39 2    
    77   38   40 1    
    78   40   41 1    
    79   40   42 1    
    80   40  102 1    
    81   41  103 1    
    82   41  104 1    
    83   41  105 1    
    84   42   43 am   BACKBONE|DICT|INTERRES
    85   42  106 1    
    86   43   44 2    
    87   43   45 1    
    88   45   46 1    
    89   45   49 1    
    90   45  107 1    
    91   46   47 1    
    92   46  108 1    
    93   46  109 1    
    94   47   48 1    
    95   48  110 1    
    96   48  111 1    
    97   49   50 am   BACKBONE|DICT|INTERRES
    98   49  112 1    
    99   50   51 2    
   100   50   52 1    
   101   52   53 1    
   102   52   54 1    
   103   52  113 1    
   104   53  114 1    
   105   53  115 1    
   106   53  116 1    
   107   54   55 am   BACKBONE|DICT|INTERRES
   108   54  117 1    
   109   55   56 2    
   110   55   57 1    
   111   57   58 1    
   112   57   59 1    
   113   57  118 1    
   114   58  119 1    
   115   58  120 1    
   116   58  121 1    
   117   59   60 am   BACKBONE|DICT|INTERRES
   118   59  122 1    
   119   60   61 2    
   120   60   62 1    
   121   62   63 1    
   122   62   64 1    
   123   62  123 1    
   124   63  124 1    
   125   63  125 1    
   126   63  126 1    
   127   64   65 am   BACKBONE|DICT|INTERRES
   128   64  127 1    
   129   65   66 2    
@<TRIPOS>SUBSTRUCTURE
     1 UNK         1 GROUP             0       ****    0 ROOT    
