@<TRIPOS>MOLECULE
3R135
127   129    1
SMALL
USER_CHARGES


@<TRIPOS>ATOM
      1 CA        -83.1672   27.0379  -69.9544 C.3       0 UNK        -0.1998 
      2 C         -83.6337   26.9551  -71.4001 C.2       0 UNK         0.4909 
      3 O         -84.6388   26.3034  -71.6847 O.2       0 UNK        -0.5240 
      4 N         -82.9090   27.6108  -72.3160 N.am      1 UNK        -0.4739 
      5 CA        -83.1858   27.6193  -73.7591 C.3       1 UNK         0.0864 
      6 C6        -82.5056   28.8259  -74.4616 C.3       11 UNK        -0.0881 
      7 S7        -80.6779   28.7566  -74.4764 S.3       11 UNK        -0.2682 
      8 C8        -80.2514   29.7978  -73.0509 C.3       11 UNK         0.0289 
      9 C9        -78.8635   29.4568  -72.5339 C.ar      11 UNK        -0.0687 
     10 C10       -78.6717   28.3229  -71.7389 C.ar      11 UNK        -0.0823 
     11 C11       -77.4064   28.0151  -71.2302 C.ar      11 UNK        -0.0830 
     12 C12       -76.3235   28.8469  -71.5371 C.ar      11 UNK        -0.1021 
     13 C13       -76.5012   29.9826  -72.3368 C.ar      11 UNK        -0.0753 
     14 C14       -77.7760   30.2823  -72.8282 C.ar      11 UNK        -0.0933 
     15 C15       -75.3310   30.9143  -72.6272 C.3       11 UNK         0.0166 
     16 S16       -75.0652   31.1566  -74.4132 S.3       11 UNK        -0.2615 
     17 C17       -73.5541   32.1810  -74.4168 C.3       11 UNK        -0.0865 
     18 CA        -72.3045   31.3980  -74.9001 C.3       10 UNK         0.0862 
     19 C         -71.0767   32.3447  -75.0456 C.2       10 UNK         0.5551 
     20 N         -69.9898   32.1468  -74.3093 N.am      10 UNK        -0.7319 
     21 O         -71.1125   33.2763  -75.8457 O.2       10 UNK        -0.5018 
     22 N         -72.0702   30.1995  -74.0778 N.am      10 UNK        -0.4509 
     23 C         -71.3690   29.1252  -74.4573 C.2       10 UNK         0.4899 
     24 O         -70.7796   29.0430  -75.5359 O.2       10 UNK        -0.4839 
     25 CA        -71.2946   27.9541  -73.4594 C.3       9 UNK         0.0222 
     26 CB        -72.2083   28.1150  -72.2245 C.3       9 UNK        -0.1966 
     27 N         -71.6469   26.7114  -74.1419 N.am      9 UNK        -0.4218 
     28 C         -70.7764   25.8261  -74.6417 C.2       9 UNK         0.5020 
     29 O         -69.5519   25.9278  -74.5445 O.2       9 UNK        -0.5274 
     30 CA        -71.3709   24.6007  -75.3550 C.3       8 UNK         0.0270 
     31 CB        -71.8258   23.5499  -74.3287 C.3       8 UNK        -0.1976 
     32 N         -72.4820   24.9342  -76.2514 N.am      8 UNK        -0.4313 
     33 C         -72.3440   25.5879  -77.4146 C.2       8 UNK         0.5041 
     34 O         -71.2606   25.9661  -77.8626 O.2       8 UNK        -0.5577 
     35 CA        -73.6190   25.8420  -78.2376 C.3       7 UNK         0.0284 
     36 CB        -74.0073   24.5863  -79.0349 C.3       7 UNK        -0.1958 
     37 N         -74.7511   26.2737  -77.4176 N.am      7 UNK        -0.4454 
     38 C         -74.8535   27.4759  -76.8330 C.2       7 UNK         0.5089 
     39 O         -74.0405   28.3857  -76.9927 O.2       7 UNK        -0.5125 
     40 CA        -76.0553   27.6927  -75.8929 C.3       6 UNK         0.0408 
     41 CB        -77.2859   28.1752  -76.6733 C.3       6 UNK        -0.1791 
     42 N         -76.4019   26.5054  -75.1083 N.am      6 UNK        -0.4762 
     43 C         -75.5722   25.9148  -74.2356 C.2       6 UNK         0.5007 
     44 O         -74.4294   26.3058  -74.0000 O.2       6 UNK        -0.5032 
     45 CA        -76.0742   24.6211  -73.5730 C.3       5 UNK         0.0783 
     46 C46       -77.0208   24.9027  -72.3816 C.3       11 UNK        -0.0857 
     47 S47       -76.1065   25.5450  -70.9384 S.3       11 UNK        -0.2512 
     48 C48       -77.2334   26.8229  -70.2947 C.3       11 UNK         0.0225 
     49 N         -76.6753   23.7306  -74.5690 N.am      5 UNK        -0.4615 
     50 C         -75.9767   23.0947  -75.5213 C.2       4 UNK         0.5053 
     51 O         -74.7534   23.1630  -75.6284 O.2       4 UNK        -0.5105 
     52 CA        -76.7722   22.2785  -76.5539 C.3       4 UNK         0.0263 
     53 CB        -77.0611   20.8671  -76.0192 C.3       4 UNK        -0.1981 
     54 N         -78.0272   22.9227  -76.9439 N.am      4 UNK        -0.4224 
     55 C         -78.1117   24.1009  -77.5786 C.2       3 UNK         0.4895 
     56 O         -77.1362   24.7403  -77.9683 O.2       3 UNK        -0.5091 
     57 CA        -79.5199   24.6909  -77.7648 C.3       3 UNK         0.0250 
     58 CB        -80.1216   24.2366  -79.1038 C.3       3 UNK        -0.1996 
     59 N         -80.4477   24.3695  -76.6736 N.am      3 UNK        -0.4254 
     60 C         -80.2555   24.6947  -75.3877 C.2       2 UNK         0.5004 
     61 O         -79.2493   25.2710  -74.9663 O.2       2 UNK        -0.5226 
     62 CA        -81.3564   24.2869  -74.3990 C.3       2 UNK         0.0269 
     63 CB        -80.7855   23.4095  -73.2717 C.3       2 UNK        -0.1926 
     64 N         -81.9541   25.4853  -73.8201 N.am      2 UNK        -0.4687 
     65 C         -82.8322   26.2807  -74.4481 C.2       1 UNK         0.5165 
     66 O         -83.3454   26.0027  -75.5336 O.2       1 UNK        -0.5079 
     67 H67       -82.9410   26.0415  -69.5759 H         1 UNK         0.0900 
     68 H68       -83.9509   27.4690  -69.3320 H         1 UNK         0.0900 
     69 H69       -82.2735   27.6524  -69.8474 H         1 UNK         0.0900 
     70 H70       -82.0958   28.1329  -72.0274 H         1 UNK         0.2959 
     71 H71       -84.2645   27.7428  -73.8814 H         1 UNK         0.1079 
     72 H72       -82.8427   28.8861  -75.4982 H         1 UNK         0.0837 
     73 H73       -82.8304   29.7599  -74.0003 H         1 UNK         0.0837 
     74 H74       -80.3117   30.8471  -73.3439 H         1 UNK         0.0685 
     75 H75       -80.9765   29.6621  -72.2484 H         1 UNK         0.0685 
     76 H76       -79.5149   27.6885  -71.5046 H         1 UNK         0.1434 
     77 H77       -75.3467   28.6149  -71.1353 H         1 UNK         0.1329 
     78 H78       -77.9199   31.1640  -73.4377 H         1 UNK         0.1335 
     79 H79       -75.5245   31.8806  -72.1595 H         1 UNK         0.0680 
     80 H80       -74.4154   30.5282  -72.1783 H         1 UNK         0.0680 
     81 H81       -73.3854   32.6026  -73.4242 H         1 UNK         0.1032 
     82 H82       -73.7438   33.0325  -75.0733 H         1 UNK         0.1032 
     83 H83       -72.5208   31.0473  -75.9115 H         1 UNK         0.0461 
     84 H84       -69.2004   32.7646  -74.4150 H         1 UNK         0.3453 
     85 H85       -69.9492   31.3805  -73.6572 H         1 UNK         0.3453 
     86 H86       -72.5149   30.1895  -73.1738 H         1 UNK         0.2984 
     87 H87       -70.2641   27.9047  -73.1025 H         1 UNK         0.0554 
     88 H88       -72.1385   27.2439  -71.5727 H         1 UNK         0.0847 
     89 H89       -73.2569   28.2253  -72.5046 H         1 UNK         0.0847 
     90 H90       -71.9237   28.9797  -71.6238 H         1 UNK         0.0847 
     91 H91       -72.6449   26.5398  -74.2618 H         1 UNK         0.3141 
     92 H92       -70.5776   24.1550  -75.9590 H         1 UNK         0.0743 
     93 H93       -72.6531   23.9136  -73.7181 H         1 UNK         0.0784 
     94 H94       -72.1501   22.6320  -74.8193 H         1 UNK         0.0784 
     95 H95       -71.0117   23.2849  -73.6526 H         1 UNK         0.0784 
     96 H96       -73.4006   24.5924  -75.9843 H         1 UNK         0.3213 
     97 H97       -73.3983   26.6390  -78.9512 H         1 UNK         0.0855 
     98 H98       -73.1829   24.2549  -79.6677 H         1 UNK         0.0814 
     99 H99       -74.8593   24.7792  -79.6871 H         1 UNK         0.0814 
    100 H100      -74.2707   23.7558  -78.3791 H         1 UNK         0.0814 
    101 H101      -75.5218   25.6190  -77.3151 H         1 UNK         0.3105 
    102 H102      -75.7802   28.4710  -75.1805 H         1 UNK         0.0547 
    103 H103      -77.0642   29.0949  -77.2160 H         1 UNK         0.0837 
    104 H104      -77.6182   27.4362  -77.4022 H         1 UNK         0.0837 
    105 H105      -78.1185   28.3876  -76.0034 H         1 UNK         0.0837 
    106 H106      -77.3337   26.1207  -75.2285 H         1 UNK         0.3020 
    107 H107      -75.1948   24.1033  -73.1820 H         1 UNK         0.1245 
    108 H108      -77.5104   23.9799  -72.0674 H         1 UNK         0.0781 
    109 H109      -77.8212   25.5877  -72.6669 H         1 UNK         0.0781 
    110 H110      -76.8408   27.1825  -69.3426 H         1 UNK         0.0836 
    111 H111      -78.1951   26.3599  -70.0680 H         1 UNK         0.0836 
    112 H112      -77.6854   23.7145  -74.6038 H         1 UNK         0.3022 
    113 H113      -76.1531   22.1852  -77.4488 H         1 UNK         0.0747 
    114 H114      -77.5510   20.2499  -76.7725 H         1 UNK         0.0793 
    115 H115      -76.1361   20.3604  -75.7397 H         1 UNK         0.0793 
    116 H116      -77.6998   20.8903  -75.1352 H         1 UNK         0.0793 
    117 H117      -78.8838   22.4646  -76.6698 H         1 UNK         0.3047 
    118 H118      -79.4144   25.7774  -77.7896 H         1 UNK         0.0822 
    119 H119      -81.0754   24.7277  -79.2977 H         1 UNK         0.0807 
    120 H120      -80.2861   23.1587  -79.1296 H         1 UNK         0.0807 
    121 H121      -79.4578   24.4850  -79.9334 H         1 UNK         0.0807 
    122 H122      -81.3094   23.9124  -76.9365 H         1 UNK         0.2946 
    123 H123      -82.1284   23.7176  -74.9219 H         1 UNK         0.1144 
    124 H124      -80.3193   22.5093  -73.6742 H         1 UNK         0.0793 
    125 H125      -81.5700   23.0884  -72.5861 H         1 UNK         0.0793 
    126 H126      -80.0294   23.9369  -72.6888 H         1 UNK         0.0793 
    127 H127      -81.5572   25.8162  -72.9538 H         1 UNK         0.2896 
@<TRIPOS>BOND
     1    1    2 1    
     2    1   67 1    
     3    1   68 1    
     4    1   69 1    
     5    2    3 2    
     6    2    4 am   BACKBONE|DICT|INTERRES
     7    4    5 1    
     8    4   70 1    
     9    5    6 1    
    10    5   65 1    
    11    5   71 1    
    12    6    7 1    
    13    6   72 1    
    14    6   73 1    
    15    7    8 1    
    16    8    9 1    
    17    8   74 1    
    18    8   75 1    
    19    9   10 ar   
    20    9   14 ar   
    21   10   11 ar   
    22   10   76 1    
    23   11   12 ar   
    24   11   48 1    
    25   12   13 ar   
    26   12   77 1    
    27   13   14 ar   
    28   13   15 1    
    29   14   78 1    
    30   15   16 1    
    31   15   79 1    
    32   15   80 1    
    33   16   17 1    
    34   17   18 1    
    35   17   81 1    
    36   17   82 1    
    37   18   19 1    
    38   18   22 1    
    39   18   83 1    
    40   19   20 am   BACKBONE|DICT|INTERRES
    41   19   21 2    
    42   20   84 1    
    43   20   85 1    
    44   22   23 am   BACKBONE|DICT|INTERRES
    45   22   86 1    
    46   23   24 2    
    47   23   25 1    
    48   25   26 1    
    49   25   27 1    
    50   25   87 1    
    51   26   88 1    
    52   26   89 1    
    53   26   90 1    
    54   27   28 am   BACKBONE|DICT|INTERRES
    55   27   91 1    
    56   28   29 2    
    57   28   30 1    
    58   30   31 1    
    59   30   32 1    
    60   30   92 1    
    61   31   93 1    
    62   31   94 1    
    63   31   95 1    
    64   32   33 am   BACKBONE|DICT|INTERRES
    65   32   96 1    
    66   33   34 2    
    67   33   35 1    
    68   35   36 1    
    69   35   37 1    
    70   35   97 1    
    71   36   98 1    
    72   36   99 1    
    73   36  100 1    
    74   37   38 am   BACKBONE|DICT|INTERRES
    75   37  101 1    
    76   38   39 2    
    77   38   40 1    
    78   40   41 1    
    79   40   42 1    
    80   40  102 1    
    81   41  103 1    
    82   41  104 1    
    83   41  105 1    
    84   42   43 am   BACKBONE|DICT|INTERRES
    85   42  106 1    
    86   43   44 2    
    87   43   45 1    
    88   45   46 1    
    89   45   49 1    
    90   45  107 1    
    91   46   47 1    
    92   46  108 1    
    93   46  109 1    
    94   47   48 1    
    95   48  110 1    
    96   48  111 1    
    97   49   50 am   BACKBONE|DICT|INTERRES
    98   49  112 1    
    99   50   51 2    
   100   50   52 1    
   101   52   53 1    
   102   52   54 1    
   103   52  113 1    
   104   53  114 1    
   105   53  115 1    
   106   53  116 1    
   107   54   55 am   BACKBONE|DICT|INTERRES
   108   54  117 1    
   109   55   56 2    
   110   55   57 1    
   111   57   58 1    
   112   57   59 1    
   113   57  118 1    
   114   58  119 1    
   115   58  120 1    
   116   58  121 1    
   117   59   60 am   BACKBONE|DICT|INTERRES
   118   59  122 1    
   119   60   61 2    
   120   60   62 1    
   121   62   63 1    
   122   62   64 1    
   123   62  123 1    
   124   63  124 1    
   125   63  125 1    
   126   63  126 1    
   127   64   65 am   BACKBONE|DICT|INTERRES
   128   64  127 1    
   129   65   66 2    
@<TRIPOS>SUBSTRUCTURE
     1 UNK         1 GROUP             0       ****    0 ROOT    
