@<TRIPOS>MOLECULE
3R135
127   129    1
SMALL
USER_CHARGES


@<TRIPOS>ATOM
      1 CA        -83.8425   26.9117  -70.6103 C.3       0 UNK        -0.1998 
      2 C         -83.6678   27.2915  -72.0730 C.2       0 UNK         0.4909 
      3 O         -84.6514   27.3586  -72.8107 O.2       0 UNK        -0.5240 
      4 N         -82.4218   27.5405  -72.4966 N.am      1 UNK        -0.4739 
      5 CA        -82.0653   27.9073  -73.8745 C.3       1 UNK         0.0864 
      6 C6        -80.6614   28.5583  -73.9498 C.3       11 UNK        -0.0881 
      7 S7        -80.6280   30.2104  -73.1751 S.3       11 UNK        -0.2682 
      8 C8        -79.9105   29.8795  -71.5333 C.3       11 UNK         0.0289 
      9 C9        -78.4499   29.4560  -71.6065 C.ar      11 UNK        -0.0687 
     10 C10       -78.0727   28.1563  -71.2554 C.ar      11 UNK        -0.0823 
     11 C11       -76.7289   27.7614  -71.3072 C.ar      11 UNK        -0.0830 
     12 C12       -75.7626   28.6984  -71.6883 C.ar      11 UNK        -0.1021 
     13 C13       -76.1233   30.0068  -72.0218 C.ar      11 UNK        -0.0753 
     14 C14       -77.4704   30.3768  -71.9886 C.ar      11 UNK        -0.0933 
     15 C15       -75.0537   31.0335  -72.3623 C.3       11 UNK         0.0166 
     16 S16       -74.2950   30.7327  -73.9892 S.3       11 UNK        -0.2615 
     17 C17       -73.1965   32.1918  -74.1111 C.3       11 UNK        -0.0865 
     18 CA        -71.6998   31.9216  -73.7970 C.3       10 UNK         0.0862 
     19 C         -71.4564   31.5477  -72.3057 C.2       10 UNK         0.5551 
     20 N         -71.5374   32.5206  -71.4078 N.am      10 UNK        -0.7319 
     21 O         -71.2271   30.3926  -71.9507 O.2       10 UNK        -0.5018 
     22 N         -71.1125   30.9699  -74.7486 N.am      10 UNK        -0.4509 
     23 C         -69.8031   30.7460  -74.9082 C.2       10 UNK         0.4899 
     24 O         -68.9254   31.3872  -74.3269 O.2       10 UNK        -0.4839 
     25 CA        -69.4149   29.6113  -75.8785 C.3       9 UNK         0.0222 
     26 CB        -67.8896   29.4391  -76.0121 C.3       9 UNK        -0.1966 
     27 N         -70.0048   28.3287  -75.4828 N.am      9 UNK        -0.4218 
     28 C         -71.2743   27.9649  -75.7010 C.2       9 UNK         0.5020 
     29 O         -72.1011   28.6862  -76.2647 O.2       9 UNK        -0.5274 
     30 CA        -71.6964   26.5947  -75.1450 C.3       8 UNK         0.0270 
     31 CB        -72.1806   26.7449  -73.6929 C.3       8 UNK        -0.1976 
     32 N         -72.7571   25.9859  -75.9521 N.am      8 UNK        -0.4313 
     33 C         -72.5908   25.5367  -77.2066 C.2       8 UNK         0.5041 
     34 O         -71.4946   25.4956  -77.7691 O.2       8 UNK        -0.5577 
     35 CA        -73.8295   25.0302  -77.9748 C.3       7 UNK         0.0284 
     36 CB        -73.8238   23.4940  -78.0465 C.3       7 UNK        -0.1958 
     37 N         -75.1034   25.4716  -77.4071 N.am      7 UNK        -0.4454 
     38 C         -75.5563   26.7323  -77.3889 C.2       7 UNK         0.5089 
     39 O         -75.0134   27.6610  -77.9866 O.2       7 UNK        -0.5125 
     40 CA        -76.8179   27.0126  -76.5477 C.3       6 UNK         0.0408 
     41 CB        -78.0383   27.2199  -77.4579 C.3       6 UNK        -0.1791 
     42 N         -77.1357   25.9746  -75.5606 N.am      6 UNK        -0.4762 
     43 C         -76.3619   25.5981  -74.5310 C.2       6 UNK         0.5007 
     44 O         -75.2426   26.0576  -74.3124 O.2       6 UNK        -0.5032 
     45 CA        -76.9176   24.4748  -73.6385 C.3       5 UNK         0.0783 
     46 C46       -78.0373   24.9978  -72.6952 C.3       11 UNK        -0.0857 
     47 S47       -77.5366   25.0445  -70.9434 S.3       11 UNK        -0.2512 
     48 C48       -76.2626   26.3571  -70.9183 C.3       11 UNK         0.0225 
     49 N         -77.3821   23.3713  -74.4797 N.am      5 UNK        -0.4615 
     50 C         -76.5990   22.4029  -74.9718 C.2       4 UNK         0.5053 
     51 O         -75.4016   22.2943  -74.7102 O.2       4 UNK        -0.5105 
     52 CA        -77.2548   21.3812  -75.9194 C.3       4 UNK         0.0263 
     53 CB        -77.6670   20.1200  -75.1433 C.3       4 UNK        -0.1981 
     54 N         -78.4214   21.9117  -76.6305 N.am      4 UNK        -0.4224 
     55 C         -78.3653   22.8493  -77.5867 C.2       3 UNK         0.4895 
     56 O         -77.3172   23.3369  -78.0077 O.2       3 UNK        -0.5091 
     57 CA        -79.7092   23.3635  -78.1332 C.3       3 UNK         0.0250 
     58 CB        -80.1909   22.4774  -79.2930 C.3       3 UNK        -0.1996 
     59 N         -80.7749   23.4786  -77.1273 N.am      3 UNK        -0.4254 
     60 C         -80.6964   24.1989  -75.9995 C.2       2 UNK         0.5004 
     61 O         -79.6724   24.7729  -75.6224 O.2       2 UNK        -0.5226 
     62 CA        -81.9529   24.2472  -75.1154 C.3       2 UNK         0.0269 
     63 CB        -81.9720   23.0474  -74.1545 C.3       2 UNK        -0.1926 
     64 N         -82.0090   25.4832  -74.3300 N.am      2 UNK        -0.4687 
     65 C         -82.1592   26.7124  -74.8471 C.2       1 UNK         0.5165 
     66 O         -82.3684   26.9263  -76.0427 O.2       1 UNK        -0.5079 
     67 H67       -82.8931   26.8974  -70.0753 H         1 UNK         0.0900 
     68 H68       -84.4999   27.6251  -70.1140 H         1 UNK         0.0900 
     69 H69       -84.2916   25.9221  -70.5309 H         1 UNK         0.0900 
     70 H70       -81.6546   27.4766  -71.8447 H         1 UNK         0.2959 
     71 H71       -82.7959   28.6400  -74.2261 H         1 UNK         0.1079 
     72 H72       -80.3596   28.6987  -74.9900 H         1 UNK         0.0837 
     73 H73       -79.9026   27.9115  -73.5078 H         1 UNK         0.0837 
     74 H74       -79.9835   30.7882  -70.9341 H         1 UNK         0.0685 
     75 H75       -80.5117   29.1307  -71.0169 H         1 UNK         0.0685 
     76 H76       -78.8322   27.4578  -70.9355 H         1 UNK         0.1434 
     77 H77       -74.7187   28.4150  -71.7153 H         1 UNK         0.1329 
     78 H78       -77.7600   31.3872  -72.2437 H         1 UNK         0.1335 
     79 H79       -74.2819   31.0108  -71.5920 H         1 UNK         0.0680 
     80 H80       -75.4769   32.0391  -72.3445 H         1 UNK         0.0680 
     81 H81       -73.2813   32.5779  -75.1280 H         1 UNK         0.1032 
     82 H82       -73.5768   32.9940  -73.4764 H         1 UNK         0.1032 
     83 H83       -71.1729   32.8641  -73.9603 H         1 UNK         0.0461 
     84 H84       -71.7218   33.4731  -71.6816 H         1 UNK         0.3453 
     85 H85       -71.3922   32.3002  -70.4349 H         1 UNK         0.3453 
     86 H86       -71.7612   30.3551  -75.2314 H         1 UNK         0.2984 
     87 H87       -69.8006   29.8856  -76.8628 H         1 UNK         0.0554 
     88 H88       -67.4200   30.3643  -76.3491 H         1 UNK         0.0847 
     89 H89       -67.6389   28.6687  -76.7416 H         1 UNK         0.0847 
     90 H90       -67.4274   29.1663  -75.0625 H         1 UNK         0.0847 
     91 H91       -69.4041   27.7001  -74.9684 H         1 UNK         0.3141 
     92 H92       -70.8342   25.9247  -75.1602 H         1 UNK         0.0743 
     93 H93       -73.0188   27.4401  -73.6202 H         1 UNK         0.0784 
     94 H94       -72.5008   25.7893  -73.2772 H         1 UNK         0.0784 
     95 H95       -71.3870   27.1302  -73.0512 H         1 UNK         0.0784 
     96 H96       -73.6923   26.0129  -75.5555 H         1 UNK         0.3213 
     97 H97       -73.7624   25.4227  -78.9916 H         1 UNK         0.0855 
     98 H98       -73.9175   23.0442  -77.0572 H         1 UNK         0.0814 
     99 H99       -72.8959   23.1258  -78.4862 H         1 UNK         0.0814 
    100 H100      -74.6419   23.1220  -78.6634 H         1 UNK         0.0814 
    101 H101      -75.6697   24.7660  -76.9558 H         1 UNK         0.3105 
    102 H102      -76.6392   27.9383  -75.9967 H         1 UNK         0.0547 
    103 H103      -77.8693   28.0391  -78.1580 H         1 UNK         0.0837 
    104 H104      -78.2526   26.3274  -78.0456 H         1 UNK         0.0837 
    105 H105      -78.9307   27.4639  -76.8812 H         1 UNK         0.0837 
    106 H106      -78.0501   25.5323  -75.6533 H         1 UNK         0.3020 
    107 H107      -76.0840   24.1059  -73.0360 H         1 UNK         0.1245 
    108 H108      -78.9112   24.3460  -72.7423 H         1 UNK         0.0781 
    109 H109      -78.4144   25.9785  -72.9900 H         1 UNK         0.0781 
    110 H110      -75.4359   26.0529  -71.5616 H         1 UNK         0.0836 
    111 H111      -75.8534   26.4071  -69.9085 H         1 UNK         0.0836 
    112 H112      -78.3367   23.4432  -74.8098 H         1 UNK         0.3022 
    113 H113      -76.5060   21.0972  -76.6622 H         1 UNK         0.0747 
    114 H114      -78.0618   19.3539  -75.8110 H         1 UNK         0.0793 
    115 H115      -76.8118   19.6848  -74.6242 H         1 UNK         0.0793 
    116 H116      -78.4276   20.3375  -74.3922 H         1 UNK         0.0793 
    117 H117      -79.3274   21.5656  -76.3500 H         1 UNK         0.3047 
    118 H118      -79.5326   24.3657  -78.5276 H         1 UNK         0.0822 
    119 H119      -81.0785   22.8939  -79.7696 H         1 UNK         0.0807 
    120 H120      -80.4308   21.4671  -78.9590 H         1 UNK         0.0807 
    121 H121      -79.4233   22.3920  -80.0638 H         1 UNK         0.0807 
    122 H122      -81.6475   23.0200  -77.3483 H         1 UNK         0.2946 
    123 H123      -82.8362   24.2102  -75.7571 H         1 UNK         0.1144 
    124 H124      -82.8672   23.0524  -73.5321 H         1 UNK         0.0793 
    125 H125      -81.1043   23.0443  -73.4933 H         1 UNK         0.0793 
    126 H126      -81.9677   22.1040  -74.7021 H         1 UNK         0.0793 
    127 H127      -81.8363   25.4029  -73.3395 H         1 UNK         0.2896 
@<TRIPOS>BOND
     1    1    2 1    
     2    1   67 1    
     3    1   68 1    
     4    1   69 1    
     5    2    3 2    
     6    2    4 am   BACKBONE|DICT|INTERRES
     7    4    5 1    
     8    4   70 1    
     9    5    6 1    
    10    5   65 1    
    11    5   71 1    
    12    6    7 1    
    13    6   72 1    
    14    6   73 1    
    15    7    8 1    
    16    8    9 1    
    17    8   74 1    
    18    8   75 1    
    19    9   10 ar   
    20    9   14 ar   
    21   10   11 ar   
    22   10   76 1    
    23   11   12 ar   
    24   11   48 1    
    25   12   13 ar   
    26   12   77 1    
    27   13   14 ar   
    28   13   15 1    
    29   14   78 1    
    30   15   16 1    
    31   15   79 1    
    32   15   80 1    
    33   16   17 1    
    34   17   18 1    
    35   17   81 1    
    36   17   82 1    
    37   18   19 1    
    38   18   22 1    
    39   18   83 1    
    40   19   20 am   BACKBONE|DICT|INTERRES
    41   19   21 2    
    42   20   84 1    
    43   20   85 1    
    44   22   23 am   BACKBONE|DICT|INTERRES
    45   22   86 1    
    46   23   24 2    
    47   23   25 1    
    48   25   26 1    
    49   25   27 1    
    50   25   87 1    
    51   26   88 1    
    52   26   89 1    
    53   26   90 1    
    54   27   28 am   BACKBONE|DICT|INTERRES
    55   27   91 1    
    56   28   29 2    
    57   28   30 1    
    58   30   31 1    
    59   30   32 1    
    60   30   92 1    
    61   31   93 1    
    62   31   94 1    
    63   31   95 1    
    64   32   33 am   BACKBONE|DICT|INTERRES
    65   32   96 1    
    66   33   34 2    
    67   33   35 1    
    68   35   36 1    
    69   35   37 1    
    70   35   97 1    
    71   36   98 1    
    72   36   99 1    
    73   36  100 1    
    74   37   38 am   BACKBONE|DICT|INTERRES
    75   37  101 1    
    76   38   39 2    
    77   38   40 1    
    78   40   41 1    
    79   40   42 1    
    80   40  102 1    
    81   41  103 1    
    82   41  104 1    
    83   41  105 1    
    84   42   43 am   BACKBONE|DICT|INTERRES
    85   42  106 1    
    86   43   44 2    
    87   43   45 1    
    88   45   46 1    
    89   45   49 1    
    90   45  107 1    
    91   46   47 1    
    92   46  108 1    
    93   46  109 1    
    94   47   48 1    
    95   48  110 1    
    96   48  111 1    
    97   49   50 am   BACKBONE|DICT|INTERRES
    98   49  112 1    
    99   50   51 2    
   100   50   52 1    
   101   52   53 1    
   102   52   54 1    
   103   52  113 1    
   104   53  114 1    
   105   53  115 1    
   106   53  116 1    
   107   54   55 am   BACKBONE|DICT|INTERRES
   108   54  117 1    
   109   55   56 2    
   110   55   57 1    
   111   57   58 1    
   112   57   59 1    
   113   57  118 1    
   114   58  119 1    
   115   58  120 1    
   116   58  121 1    
   117   59   60 am   BACKBONE|DICT|INTERRES
   118   59  122 1    
   119   60   61 2    
   120   60   62 1    
   121   62   63 1    
   122   62   64 1    
   123   62  123 1    
   124   63  124 1    
   125   63  125 1    
   126   63  126 1    
   127   64   65 am   BACKBONE|DICT|INTERRES
   128   64  127 1    
   129   65   66 2    
@<TRIPOS>SUBSTRUCTURE
     1 UNK         1 GROUP             0       ****    0 ROOT    
