@<TRIPOS>MOLECULE
3R135
127   129    1
SMALL
USER_CHARGES


@<TRIPOS>ATOM
      1 CA        -80.7622   23.8021  -72.3744 C.3       0 UNK        -0.1998 
      2 C         -80.6510   25.2334  -72.8754 C.2       0 UNK         0.4909 
      3 O         -79.8238   25.5177  -73.7451 O.2       0 UNK        -0.5240 
      4 N         -81.4954   26.1171  -72.3231 N.am      1 UNK        -0.4739 
      5 CA        -81.4966   27.5810  -72.4860 C.3       1 UNK         0.0864 
      6 C6        -80.2804   28.2584  -71.8007 C.3       11 UNK        -0.0881 
      7 S7        -80.1958   27.9022  -70.0112 S.3       11 UNK        -0.2682 
      8 C8        -78.6441   28.7396  -69.5528 C.3       11 UNK         0.0289 
      9 C9        -77.4532   28.1481  -70.2906 C.ar      11 UNK        -0.0687 
     10 C10       -76.9375   26.9066  -69.9120 C.ar      11 UNK        -0.0823 
     11 C11       -75.8857   26.3243  -70.6256 C.ar      11 UNK        -0.0830 
     12 C12       -75.3341   27.0111  -71.7150 C.ar      11 UNK        -0.1021 
     13 C13       -75.8548   28.2464  -72.1116 C.ar      11 UNK        -0.0753 
     14 C14       -76.9002   28.8186  -71.3838 C.ar      11 UNK        -0.0933 
     15 C15       -75.3455   28.9445  -73.3602 C.3       11 UNK         0.0166 
     16 S16       -76.3926   28.5082  -74.7780 S.3       11 UNK        -0.2615 
     17 C17       -76.1454   29.9225  -75.9006 C.3       11 UNK        -0.0865 
     18 CA        -75.2157   29.5917  -77.0955 C.3       10 UNK         0.0862 
     19 C         -75.3739   30.6637  -78.2096 C.2       10 UNK         0.5551 
     20 N         -76.1062   30.3585  -79.2717 N.am      10 UNK        -0.7319 
     21 O         -74.8725   31.7805  -78.0950 O.2       10 UNK        -0.5018 
     22 N         -73.8138   29.4652  -76.6699 N.am      10 UNK        -0.4509 
     23 C         -72.8172   29.0360  -77.4525 C.2       10 UNK         0.4899 
     24 O         -72.9947   28.5335  -78.5625 O.2       10 UNK        -0.4839 
     25 CA        -71.3730   29.1995  -76.9398 C.3       9 UNK         0.0222 
     26 CB        -70.8103   30.5790  -77.3340 C.3       9 UNK        -0.1966 
     27 N         -71.1628   28.9261  -75.5108 N.am      9 UNK        -0.4218 
     28 C         -71.6168   29.5863  -74.4360 C.2       9 UNK         0.5020 
     29 O         -72.3640   30.5641  -74.4952 O.2       9 UNK        -0.5274 
     30 CA        -71.2074   29.0073  -73.0688 C.3       8 UNK         0.0270 
     31 CB        -71.8426   29.7552  -71.8805 C.3       8 UNK        -0.1976 
     32 N         -71.5774   27.5930  -73.0026 N.am      8 UNK        -0.4313 
     33 C         -70.7740   26.5681  -73.3138 C.2       8 UNK         0.5041 
     34 O         -69.5819   26.6910  -73.5954 O.2       8 UNK        -0.5577 
     35 CA        -71.4393   25.1846  -73.3967 C.3       7 UNK         0.0284 
     36 CB        -71.6162   24.5809  -71.9946 C.3       7 UNK        -0.1958 
     37 N         -72.7302   25.2216  -74.0964 N.am      7 UNK        -0.4454 
     38 C         -72.8887   25.5459  -75.3901 C.2       7 UNK         0.5089 
     39 O         -71.9475   25.8304  -76.1313 O.2       7 UNK        -0.5125 
     40 CA        -74.3267   25.5998  -75.9506 C.3       6 UNK         0.0408 
     41 CB        -74.4067   25.1052  -77.4092 C.3       6 UNK        -0.1791 
     42 N         -75.3495   24.9462  -75.1201 N.am      6 UNK        -0.4762 
     43 C         -75.4230   23.6430  -74.8023 C.2       6 UNK         0.5007 
     44 O         -74.5994   22.7985  -75.1556 O.2       6 UNK        -0.5032 
     45 CA        -76.6339   23.2181  -73.9445 C.3       5 UNK         0.0783 
     46 C46       -76.6878   23.9054  -72.5533 C.3       11 UNK        -0.0857 
     47 S47       -75.1201   23.7958  -71.6145 S.3       11 UNK        -0.2512 
     48 C48       -75.3854   24.9412  -70.2177 C.3       11 UNK         0.0225 
     49 N         -77.8621   23.4491  -74.7065 N.am      5 UNK        -0.4615 
     50 C         -78.2620   22.6920  -75.7391 C.2       4 UNK         0.5053 
     51 O         -77.7184   21.6370  -76.0658 O.2       4 UNK        -0.5105 
     52 CA        -79.4534   23.2013  -76.5628 C.3       4 UNK         0.0263 
     53 CB        -80.7803   22.6299  -76.0402 C.3       4 UNK        -0.1981 
     54 N         -79.5160   24.6625  -76.5684 N.am      4 UNK        -0.4224 
     55 C         -78.8742   25.4449  -77.4467 C.2       3 UNK         0.4895 
     56 O         -78.1773   25.0090  -78.3645 O.2       3 UNK        -0.5091 
     57 CA        -79.0342   26.9680  -77.2629 C.3       3 UNK         0.0250 
     58 CB        -78.7856   27.7612  -78.5624 C.3       3 UNK        -0.1996 
     59 N         -80.3094   27.3582  -76.6475 N.am      3 UNK        -0.4254 
     60 C         -81.5526   27.1100  -77.0880 C.2       2 UNK         0.5004 
     61 O         -81.7983   26.5416  -78.1533 O.2       2 UNK        -0.5226 
     62 CA        -82.7153   27.5418  -76.1653 C.3       2 UNK         0.0269 
     63 CB        -84.0479   26.8672  -76.5434 C.3       2 UNK        -0.1926 
     64 N         -82.4480   27.2862  -74.7429 N.am      2 UNK        -0.4687 
     65 C         -81.6728   28.0408  -73.9513 C.2       1 UNK         0.5165 
     66 O         -81.0934   29.0491  -74.3590 O.2       1 UNK        -0.5079 
     67 H67       -81.6983   23.3527  -72.7043 H         1 UNK         0.0900 
     68 H68       -79.9399   23.1920  -72.7456 H         1 UNK         0.0900 
     69 H69       -80.7312   23.7748  -71.2854 H         1 UNK         0.0900 
     70 H70       -82.1545   25.7773  -71.6363 H         1 UNK         0.2959 
     71 H71       -82.3927   27.9380  -71.9756 H         1 UNK         0.1079 
     72 H72       -80.3177   29.3433  -71.9162 H         1 UNK         0.0837 
     73 H73       -79.3597   27.9260  -72.2827 H         1 UNK         0.0837 
     74 H74       -78.7361   29.8076  -69.7564 H         1 UNK         0.0685 
     75 H75       -78.4916   28.6435  -68.4769 H         1 UNK         0.0685 
     76 H76       -77.3812   26.3825  -69.0764 H         1 UNK         0.1434 
     77 H77       -74.5348   26.5603  -72.2819 H         1 UNK         0.1329 
     78 H78       -77.3152   29.7660  -71.6999 H         1 UNK         0.1335 
     79 H79       -75.3411   30.0240  -73.2021 H         1 UNK         0.0680 
     80 H80       -74.3199   28.6519  -73.5792 H         1 UNK         0.0680 
     81 H81       -77.1390   30.1998  -76.2594 H         1 UNK         0.1032 
     82 H82       -75.7790   30.7922  -75.3522 H         1 UNK         0.1032 
     83 H83       -75.5207   28.6271  -77.5074 H         1 UNK         0.0461 
     84 H84       -76.5125   29.4437  -79.3807 H         1 UNK         0.3453 
     85 H85       -76.2295   31.0501  -79.9947 H         1 UNK         0.3453 
     86 H86       -73.5536   29.9247  -75.8019 H         1 UNK         0.2984 
     87 H87       -70.7790   28.4466  -77.4605 H         1 UNK         0.0554 
     88 H88       -70.8765   30.7320  -78.4120 H         1 UNK         0.0847 
     89 H89       -69.7604   30.6743  -77.0575 H         1 UNK         0.0847 
     90 H90       -71.3585   31.3938  -76.8597 H         1 UNK         0.0847 
     91 H91       -70.6116   28.0969  -75.3254 H         1 UNK         0.3141 
     92 H92       -70.1239   29.1162  -72.9846 H         1 UNK         0.0743 
     93 H93       -72.9310   29.7054  -71.8950 H         1 UNK         0.0784 
     94 H94       -71.5036   29.3438  -70.9297 H         1 UNK         0.0784 
     95 H95       -71.5654   30.8102  -71.8915 H         1 UNK         0.0784 
     96 H96       -72.5461   27.3918  -72.8111 H         1 UNK         0.3213 
     97 H97       -70.7735   24.5318  -73.9658 H         1 UNK         0.0855 
     98 H98       -72.2912   25.1735  -71.3762 H         1 UNK         0.0814 
     99 H99       -70.6605   24.5263  -71.4713 H         1 UNK         0.0814 
    100 H100      -72.0112   23.5662  -72.0470 H         1 UNK         0.0814 
    101 H101      -73.5470   24.9359  -73.5760 H         1 UNK         0.3105 
    102 H102      -74.5838   26.6574  -75.9648 H         1 UNK         0.0547 
    103 H103      -75.4205   25.1882  -77.8007 H         1 UNK         0.0837 
    104 H104      -73.7633   25.6988  -78.0601 H         1 UNK         0.0837 
    105 H105      -74.0935   24.0653  -77.5032 H         1 UNK         0.0837 
    106 H106      -76.0715   25.5602  -74.7679 H         1 UNK         0.3020 
    107 H107      -76.5368   22.1435  -73.7711 H         1 UNK         0.1245 
    108 H108      -77.4760   23.4541  -71.9491 H         1 UNK         0.0781 
    109 H109      -76.9690   24.9527  -72.6705 H         1 UNK         0.0781 
    110 H110      -74.4473   25.0539  -69.6730 H         1 UNK         0.0836 
    111 H111      -76.0860   24.4697  -69.5268 H         1 UNK         0.0836 
    112 H112      -78.3916   24.2851  -74.4813 H         1 UNK         0.3022 
    113 H113      -79.3208   22.8433  -77.5863 H         1 UNK         0.0747 
    114 H114      -81.6134   22.9245  -76.6788 H         1 UNK         0.0793 
    115 H115      -80.7557   21.5394  -76.0221 H         1 UNK         0.0793 
    116 H116      -81.0003   22.9688  -75.0302 H         1 UNK         0.0793 
    117 H117      -80.0036   25.1060  -75.7980 H         1 UNK         0.3047 
    118 H118      -78.2604   27.2549  -76.5527 H         1 UNK         0.0822 
    119 H119      -78.8562   28.8351  -78.3899 H         1 UNK         0.0807 
    120 H120      -79.5035   27.4969  -79.3394 H         1 UNK         0.0807 
    121 H121      -77.7896   27.5607  -78.9585 H         1 UNK         0.0807 
    122 H122      -80.2361   27.8514  -75.7636 H         1 UNK         0.2946 
    123 H123      -82.8377   28.6182  -76.3080 H         1 UNK         0.1144 
    124 H124      -84.8624   27.2104  -75.9052 H         1 UNK         0.0793 
    125 H125      -83.9876   25.7815  -76.4583 H         1 UNK         0.0793 
    126 H126      -84.3289   27.0995  -77.5716 H         1 UNK         0.0793 
    127 H127      -82.8552   26.4507  -74.3474 H         1 UNK         0.2896 
@<TRIPOS>BOND
     1    1    2 1    
     2    1   67 1    
     3    1   68 1    
     4    1   69 1    
     5    2    3 2    
     6    2    4 am   BACKBONE|DICT|INTERRES
     7    4    5 1    
     8    4   70 1    
     9    5    6 1    
    10    5   65 1    
    11    5   71 1    
    12    6    7 1    
    13    6   72 1    
    14    6   73 1    
    15    7    8 1    
    16    8    9 1    
    17    8   74 1    
    18    8   75 1    
    19    9   10 ar   
    20    9   14 ar   
    21   10   11 ar   
    22   10   76 1    
    23   11   12 ar   
    24   11   48 1    
    25   12   13 ar   
    26   12   77 1    
    27   13   14 ar   
    28   13   15 1    
    29   14   78 1    
    30   15   16 1    
    31   15   79 1    
    32   15   80 1    
    33   16   17 1    
    34   17   18 1    
    35   17   81 1    
    36   17   82 1    
    37   18   19 1    
    38   18   22 1    
    39   18   83 1    
    40   19   20 am   BACKBONE|DICT|INTERRES
    41   19   21 2    
    42   20   84 1    
    43   20   85 1    
    44   22   23 am   BACKBONE|DICT|INTERRES
    45   22   86 1    
    46   23   24 2    
    47   23   25 1    
    48   25   26 1    
    49   25   27 1    
    50   25   87 1    
    51   26   88 1    
    52   26   89 1    
    53   26   90 1    
    54   27   28 am   BACKBONE|DICT|INTERRES
    55   27   91 1    
    56   28   29 2    
    57   28   30 1    
    58   30   31 1    
    59   30   32 1    
    60   30   92 1    
    61   31   93 1    
    62   31   94 1    
    63   31   95 1    
    64   32   33 am   BACKBONE|DICT|INTERRES
    65   32   96 1    
    66   33   34 2    
    67   33   35 1    
    68   35   36 1    
    69   35   37 1    
    70   35   97 1    
    71   36   98 1    
    72   36   99 1    
    73   36  100 1    
    74   37   38 am   BACKBONE|DICT|INTERRES
    75   37  101 1    
    76   38   39 2    
    77   38   40 1    
    78   40   41 1    
    79   40   42 1    
    80   40  102 1    
    81   41  103 1    
    82   41  104 1    
    83   41  105 1    
    84   42   43 am   BACKBONE|DICT|INTERRES
    85   42  106 1    
    86   43   44 2    
    87   43   45 1    
    88   45   46 1    
    89   45   49 1    
    90   45  107 1    
    91   46   47 1    
    92   46  108 1    
    93   46  109 1    
    94   47   48 1    
    95   48  110 1    
    96   48  111 1    
    97   49   50 am   BACKBONE|DICT|INTERRES
    98   49  112 1    
    99   50   51 2    
   100   50   52 1    
   101   52   53 1    
   102   52   54 1    
   103   52  113 1    
   104   53  114 1    
   105   53  115 1    
   106   53  116 1    
   107   54   55 am   BACKBONE|DICT|INTERRES
   108   54  117 1    
   109   55   56 2    
   110   55   57 1    
   111   57   58 1    
   112   57   59 1    
   113   57  118 1    
   114   58  119 1    
   115   58  120 1    
   116   58  121 1    
   117   59   60 am   BACKBONE|DICT|INTERRES
   118   59  122 1    
   119   60   61 2    
   120   60   62 1    
   121   62   63 1    
   122   62   64 1    
   123   62  123 1    
   124   63  124 1    
   125   63  125 1    
   126   63  126 1    
   127   64   65 am   BACKBONE|DICT|INTERRES
   128   64  127 1    
   129   65   66 2    
@<TRIPOS>SUBSTRUCTURE
     1 UNK         1 GROUP             0       ****    0 ROOT    
