@<TRIPOS>MOLECULE
3R135
127   129    1
SMALL
USER_CHARGES


@<TRIPOS>ATOM
      1 CA        -80.8438   24.9063  -69.4330 C.3       0 UNK        -0.1998 
      2 C         -81.9231   25.5602  -70.2807 C.2       0 UNK         0.4909 
      3 O         -83.0931   25.1885  -70.1868 O.2       0 UNK        -0.5240 
      4 N         -81.5322   26.5303  -71.1169 N.am      1 UNK        -0.4739 
      5 CA        -82.4313   27.2951  -71.9962 C.3       1 UNK         0.0864 
      6 C6        -81.9267   28.7442  -72.2291 C.3       11 UNK        -0.0881 
      7 S7        -81.6585   29.6428  -70.6590 S.3       11 UNK        -0.2682 
      8 C8        -80.1472   30.6123  -70.9985 C.3       11 UNK         0.0289 
      9 C9        -78.9537   29.7777  -71.4579 C.ar      11 UNK        -0.0687 
     10 C10       -78.6259   28.5712  -70.8314 C.ar      11 UNK        -0.0823 
     11 C11       -77.5552   27.7932  -71.2833 C.ar      11 UNK        -0.0830 
     12 C12       -76.7723   28.2674  -72.3452 C.ar      11 UNK        -0.1021 
     13 C13       -77.0777   29.4790  -72.9733 C.ar      11 UNK        -0.0753 
     14 C14       -78.1711   30.2254  -72.5254 C.ar      11 UNK        -0.0933 
     15 C15       -76.2616   29.9702  -74.1625 C.3       11 UNK         0.0166 
     16 S16       -74.4985   30.1991  -73.7578 S.3       11 UNK        -0.2615 
     17 C17       -73.9750   31.3576  -75.0705 C.3       11 UNK        -0.0865 
     18 CA        -73.3234   30.6604  -76.3019 C.3       10 UNK         0.0862 
     19 C         -73.1298   31.6279  -77.5108 C.2       10 UNK         0.5551 
     20 N         -72.1296   31.4285  -78.3610 N.am      10 UNK        -0.7319 
     21 O         -73.9130   32.5547  -77.7046 O.2       10 UNK        -0.5018 
     22 N         -72.1281   29.8589  -75.9732 N.am      10 UNK        -0.4509 
     23 C         -70.9789   30.3251  -75.4627 C.2       10 UNK         0.4899 
     24 O         -70.8008   31.5005  -75.1378 O.2       10 UNK        -0.4839 
     25 CA        -69.8183   29.3157  -75.3341 C.3       9 UNK         0.0222 
     26 CB        -68.6483   29.8490  -74.4791 C.3       9 UNK        -0.1966 
     27 N         -70.2343   27.9870  -74.8705 N.am      9 UNK        -0.4218 
     28 C         -70.8241   27.6656  -73.7096 C.2       9 UNK         0.5020 
     29 O         -71.1035   28.4837  -72.8318 O.2       9 UNK        -0.5274 
     30 CA        -71.1402   26.1689  -73.4968 C.3       8 UNK         0.0270 
     31 CB        -72.0019   25.9178  -72.2441 C.3       8 UNK        -0.1976 
     32 N         -71.8025   25.5743  -74.6630 N.am      8 UNK        -0.4313 
     33 C         -71.1804   25.1536  -75.7760 C.2       8 UNK         0.5041 
     34 O         -69.9580   25.2015  -75.9183 O.2       8 UNK        -0.5577 
     35 CA        -72.0462   24.6541  -76.9503 C.3       7 UNK         0.0284 
     36 CB        -72.1728   23.1232  -76.9106 C.3       7 UNK        -0.1958 
     37 N         -73.3846   25.2451  -76.9839 N.am      7 UNK        -0.4454 
     38 C         -73.6480   26.5551  -77.0963 C.2       7 UNK         0.5089 
     39 O         -72.7890   27.4056  -77.3318 O.2       7 UNK        -0.5125 
     40 CA        -75.0984   27.0064  -76.8354 C.3       6 UNK         0.0408 
     41 CB        -75.7875   27.4007  -78.1492 C.3       6 UNK        -0.1791 
     42 N         -75.9219   26.0297  -76.1064 N.am      6 UNK        -0.4762 
     43 C         -75.6484   25.5792  -74.8685 C.2       6 UNK         0.5007 
     44 O         -74.6593   25.9500  -74.2382 O.2       6 UNK        -0.5032 
     45 CA        -76.5576   24.4880  -74.2564 C.3       5 UNK         0.0783 
     46 C46       -77.3972   25.0030  -73.0583 C.3       11 UNK        -0.0857 
     47 S47       -76.3729   25.2079  -71.5563 S.3       11 UNK        -0.2512 
     48 C48       -77.2845   26.4584  -70.5865 C.3       11 UNK         0.0225 
     49 N         -77.3915   23.8239  -75.2622 N.am      5 UNK        -0.4615 
     50 C         -76.9236   22.9433  -76.1610 C.2       4 UNK         0.5053 
     51 O         -75.7443   22.5929  -76.2120 O.2       4 UNK        -0.5105 
     52 CA        -77.9159   22.3721  -77.1921 C.3       4 UNK         0.0263 
     53 CB        -78.4225   20.9940  -76.7376 C.3       4 UNK        -0.1981 
     54 N         -79.0646   23.2423  -77.4552 N.am      4 UNK        -0.4224 
     55 C         -78.9947   24.4716  -77.9860 C.2       3 UNK         0.4895 
     56 O         -77.9482   24.9866  -78.3763 O.2       3 UNK        -0.5091 
     57 CA        -80.3003   25.2859  -78.0409 C.3       3 UNK         0.0250 
     58 CB        -80.9628   25.1445  -79.4205 C.3       3 UNK        -0.1996 
     59 N         -81.2718   24.9394  -76.9943 N.am      3 UNK        -0.4254 
     60 C         -81.0450   25.0281  -75.6760 C.2       2 UNK         0.5004 
     61 O         -79.9643   25.3658  -75.1852 O.2       2 UNK        -0.5226 
     62 CA        -82.1900   24.5931  -74.7526 C.3       2 UNK         0.0269 
     63 CB        -82.0582   23.0985  -74.4153 C.3       2 UNK        -0.1926 
     64 N         -82.1509   25.3621  -73.5109 N.am      2 UNK        -0.4687 
     65 C         -82.6957   26.5742  -73.3391 C.2       1 UNK         0.5165 
     66 O         -83.3836   27.1288  -74.1982 O.2       1 UNK        -0.5079 
     67 H67       -80.1681   24.3218  -70.0571 H         1 UNK         0.0900 
     68 H68       -81.2863   24.2373  -68.6951 H         1 UNK         0.0900 
     69 H69       -80.2656   25.6587  -68.8973 H         1 UNK         0.0900 
     70 H70       -80.5589   26.7936  -71.1637 H         1 UNK         0.2959 
     71 H71       -83.4051   27.3713  -71.5070 H         1 UNK         0.1079 
     72 H72       -81.0093   28.7329  -72.8195 H         1 UNK         0.0837 
     73 H73       -82.6520   29.3142  -72.8130 H         1 UNK         0.0837 
     74 H74       -80.3933   31.3703  -71.7439 H         1 UNK         0.0685 
     75 H75       -79.8671   31.1512  -70.0926 H         1 UNK         0.0685 
     76 H76       -79.2201   28.2313  -69.9941 H         1 UNK         0.1434 
     77 H77       -75.9248   27.6960  -72.6966 H         1 UNK         0.1329 
     78 H78       -78.4184   31.1581  -73.0138 H         1 UNK         0.1335 
     79 H79       -76.6734   30.9112  -74.5292 H         1 UNK         0.0680 
     80 H80       -76.3597   29.2564  -74.9794 H         1 UNK         0.0680 
     81 H81       -73.2833   32.0773  -74.6315 H         1 UNK         0.1032 
     82 H82       -74.8397   31.9483  -75.3759 H         1 UNK         0.1032 
     83 H83       -74.0516   29.9394  -76.6702 H         1 UNK         0.0461 
     84 H84       -71.4955   30.6571  -78.2293 H         1 UNK         0.3453 
     85 H85       -72.0158   32.0500  -79.1461 H         1 UNK         0.3453 
     86 H86       -72.1772   28.8871  -76.2659 H         1 UNK         0.2984 
     87 H87       -69.4391   29.1704  -76.3465 H         1 UNK         0.0554 
     88 H88       -67.8304   29.1302  -74.4312 H         1 UNK         0.0847 
     89 H89       -68.9615   30.0698  -73.4582 H         1 UNK         0.0847 
     90 H90       -68.2427   30.7699  -74.9000 H         1 UNK         0.0847 
     91 H91       -70.0412   27.2157  -75.5023 H         1 UNK         0.3141 
     92 H92       -70.1853   25.6622  -73.3421 H         1 UNK         0.0743 
     93 H93       -72.9473   26.4602  -72.2885 H         1 UNK         0.0784 
     94 H94       -72.2292   24.8588  -72.1211 H         1 UNK         0.0784 
     95 H95       -71.4835   26.2446  -71.3419 H         1 UNK         0.0784 
     96 H96       -72.8200   25.5814  -74.6367 H         1 UNK         0.3213 
     97 H97       -71.5373   24.9356  -77.8746 H         1 UNK         0.0855 
     98 H98       -72.7022   22.7848  -76.0187 H         1 UNK         0.0814 
     99 H99       -71.1899   22.6497  -76.9070 H         1 UNK         0.0814 
    100 H100      -72.7099   22.7458  -77.7811 H         1 UNK         0.0814 
    101 H101      -74.1593   24.6238  -76.7937 H         1 UNK         0.3105 
    102 H102      -75.0345   27.8938  -76.2070 H         1 UNK         0.0547 
    103 H103      -75.2386   28.1977  -78.6528 H         1 UNK         0.0837 
    104 H104      -75.8444   26.5598  -78.8411 H         1 UNK         0.0837 
    105 H105      -76.8004   27.7642  -77.9762 H         1 UNK         0.0837 
    106 H106      -76.7233   25.6540  -76.5999 H         1 UNK         0.3020 
    107 H107      -75.8788   23.7244  -73.8682 H         1 UNK         0.1245 
    108 H108      -78.1810   24.2846  -72.8129 H         1 UNK         0.0781 
    109 H109      -77.9140   25.9289  -73.3147 H         1 UNK         0.0781 
    110 H110      -76.7237   26.6566  -69.6722 H         1 UNK         0.0836 
    111 H111      -78.2270   26.0087  -70.2756 H         1 UNK         0.0836 
    112 H112      -78.3609   24.1227  -75.3042 H         1 UNK         0.3022 
    113 H113      -77.3724   22.2470  -78.1310 H         1 UNK         0.0747 
    114 H114      -79.0570   20.5337  -77.4953 H         1 UNK         0.0793 
    115 H115      -77.5899   20.3120  -76.5582 H         1 UNK         0.0793 
    116 H116      -78.9956   21.0591  -75.8117 H         1 UNK         0.0793 
    117 H117      -79.9694   22.9010  -77.1667 H         1 UNK         0.3047 
    118 H118      -80.0283   26.3340  -77.8978 H         1 UNK         0.0822 
    119 H119      -81.8317   25.7963  -79.5133 H         1 UNK         0.0807 
    120 H120      -80.2689   25.4194  -80.2165 H         1 UNK         0.0807 
    121 H121      -81.2874   24.1206  -79.6108 H         1 UNK         0.0807 
    122 H122      -82.1807   24.6329  -77.3118 H         1 UNK         0.2946 
    123 H123      -83.1453   24.7624  -75.2554 H         1 UNK         0.1144 
    124 H124      -82.1197   22.4854  -75.3154 H         1 UNK         0.0793 
    125 H125      -82.8567   22.7718  -73.7488 H         1 UNK         0.0793 
    126 H126      -81.1062   22.8740  -73.9317 H         1 UNK         0.0793 
    127 H127      -81.5665   25.0012  -72.7719 H         1 UNK         0.2896 
@<TRIPOS>BOND
     1    1    2 1    
     2    1   67 1    
     3    1   68 1    
     4    1   69 1    
     5    2    3 2    
     6    2    4 am   BACKBONE|DICT|INTERRES
     7    4    5 1    
     8    4   70 1    
     9    5    6 1    
    10    5   65 1    
    11    5   71 1    
    12    6    7 1    
    13    6   72 1    
    14    6   73 1    
    15    7    8 1    
    16    8    9 1    
    17    8   74 1    
    18    8   75 1    
    19    9   10 ar   
    20    9   14 ar   
    21   10   11 ar   
    22   10   76 1    
    23   11   12 ar   
    24   11   48 1    
    25   12   13 ar   
    26   12   77 1    
    27   13   14 ar   
    28   13   15 1    
    29   14   78 1    
    30   15   16 1    
    31   15   79 1    
    32   15   80 1    
    33   16   17 1    
    34   17   18 1    
    35   17   81 1    
    36   17   82 1    
    37   18   19 1    
    38   18   22 1    
    39   18   83 1    
    40   19   20 am   BACKBONE|DICT|INTERRES
    41   19   21 2    
    42   20   84 1    
    43   20   85 1    
    44   22   23 am   BACKBONE|DICT|INTERRES
    45   22   86 1    
    46   23   24 2    
    47   23   25 1    
    48   25   26 1    
    49   25   27 1    
    50   25   87 1    
    51   26   88 1    
    52   26   89 1    
    53   26   90 1    
    54   27   28 am   BACKBONE|DICT|INTERRES
    55   27   91 1    
    56   28   29 2    
    57   28   30 1    
    58   30   31 1    
    59   30   32 1    
    60   30   92 1    
    61   31   93 1    
    62   31   94 1    
    63   31   95 1    
    64   32   33 am   BACKBONE|DICT|INTERRES
    65   32   96 1    
    66   33   34 2    
    67   33   35 1    
    68   35   36 1    
    69   35   37 1    
    70   35   97 1    
    71   36   98 1    
    72   36   99 1    
    73   36  100 1    
    74   37   38 am   BACKBONE|DICT|INTERRES
    75   37  101 1    
    76   38   39 2    
    77   38   40 1    
    78   40   41 1    
    79   40   42 1    
    80   40  102 1    
    81   41  103 1    
    82   41  104 1    
    83   41  105 1    
    84   42   43 am   BACKBONE|DICT|INTERRES
    85   42  106 1    
    86   43   44 2    
    87   43   45 1    
    88   45   46 1    
    89   45   49 1    
    90   45  107 1    
    91   46   47 1    
    92   46  108 1    
    93   46  109 1    
    94   47   48 1    
    95   48  110 1    
    96   48  111 1    
    97   49   50 am   BACKBONE|DICT|INTERRES
    98   49  112 1    
    99   50   51 2    
   100   50   52 1    
   101   52   53 1    
   102   52   54 1    
   103   52  113 1    
   104   53  114 1    
   105   53  115 1    
   106   53  116 1    
   107   54   55 am   BACKBONE|DICT|INTERRES
   108   54  117 1    
   109   55   56 2    
   110   55   57 1    
   111   57   58 1    
   112   57   59 1    
   113   57  118 1    
   114   58  119 1    
   115   58  120 1    
   116   58  121 1    
   117   59   60 am   BACKBONE|DICT|INTERRES
   118   59  122 1    
   119   60   61 2    
   120   60   62 1    
   121   62   63 1    
   122   62   64 1    
   123   62  123 1    
   124   63  124 1    
   125   63  125 1    
   126   63  126 1    
   127   64   65 am   BACKBONE|DICT|INTERRES
   128   64  127 1    
   129   65   66 2    
@<TRIPOS>SUBSTRUCTURE
     1 UNK         1 GROUP             0       ****    0 ROOT    
