@<TRIPOS>MOLECULE
3R135
127   129    1
SMALL
USER_CHARGES


@<TRIPOS>ATOM
      1 CA        -81.2076   30.9109  -76.6027 C.3       0 UNK        -0.1998 
      2 C         -81.2555   29.3937  -76.5062 C.2       0 UNK         0.4909 
      3 O         -81.1032   28.7083  -77.5178 O.2       0 UNK        -0.5240 
      4 N         -81.4555   28.8624  -75.2947 N.am      1 UNK        -0.4739 
      5 CA        -81.5968   27.4317  -75.0259 C.3       1 UNK         0.0864 
      6 C6        -81.2206   27.0591  -73.5647 C.3       11 UNK        -0.0881 
      7 S7        -81.9070   28.1254  -72.2453 S.3       11 UNK        -0.2682 
      8 C8        -80.6634   29.4621  -72.0678 C.3       11 UNK         0.0289 
      9 C9        -79.2226   29.0112  -71.8222 C.ar      11 UNK        -0.0687 
     10 C10       -78.9257   27.8796  -71.0522 C.ar      11 UNK        -0.0823 
     11 C11       -77.5990   27.4975  -70.8343 C.ar      11 UNK        -0.0830 
     12 C12       -76.5679   28.2679  -71.3695 C.ar      11 UNK        -0.1021 
     13 C13       -76.8376   29.3995  -72.1394 C.ar      11 UNK        -0.0753 
     14 C14       -78.1704   29.7655  -72.3589 C.ar      11 UNK        -0.0933 
     15 C15       -75.6990   30.1915  -72.7782 C.3       11 UNK         0.0166 
     16 S16       -74.5375   30.9150  -71.5742 S.3       11 UNK        -0.2615 
     17 C17       -73.2219   29.6459  -71.4442 C.3       11 UNK        -0.0865 
     18 CA        -72.0380   29.8933  -72.4170 C.3       10 UNK         0.0862 
     19 C         -70.7620   29.0983  -72.0038 C.2       10 UNK         0.5551 
     20 N         -70.0702   28.4106  -72.9057 N.am      10 UNK        -0.7319 
     21 O         -70.3774   29.1173  -70.8371 O.2       10 UNK        -0.5018 
     22 N         -72.4422   29.6532  -73.8115 N.am      10 UNK        -0.4509 
     23 C         -72.0257   30.3715  -74.8602 C.2       10 UNK         0.4899 
     24 O         -71.3081   31.3691  -74.7665 O.2       10 UNK        -0.4839 
     25 CA        -72.4823   29.8778  -76.2471 C.3       9 UNK         0.0222 
     26 CB        -71.7454   30.5795  -77.4074 C.3       9 UNK        -0.1966 
     27 N         -72.4088   28.4189  -76.4042 N.am      9 UNK        -0.4218 
     28 C         -71.3269   27.6355  -76.2602 C.2       9 UNK         0.5020 
     29 O         -70.2246   28.0631  -75.9143 O.2       9 UNK        -0.5274 
     30 CA        -71.4774   26.1191  -76.5077 C.3       8 UNK         0.0270 
     31 CB        -71.1257   25.3321  -75.2333 C.3       8 UNK        -0.1976 
     32 N         -72.8098   25.7119  -76.9604 N.am      8 UNK        -0.4313 
     33 C         -73.3102   25.8971  -78.1894 C.2       8 UNK         0.5041 
     34 O         -72.6631   26.3537  -79.1320 O.2       8 UNK        -0.5577 
     35 CA        -74.8072   25.5800  -78.3764 C.3       7 UNK         0.0284 
     36 CB        -75.0170   24.1010  -78.7360 C.3       7 UNK        -0.1958 
     37 N         -75.6112   25.9277  -77.1970 N.am      7 UNK        -0.4454 
     38 C         -75.7346   27.1718  -76.7108 C.2       7 UNK         0.5089 
     39 O         -75.2430   28.1641  -77.2462 O.2       7 UNK        -0.5125 
     40 CA        -76.4628   27.3385  -75.3720 C.3       6 UNK         0.0408 
     41 CB        -77.9793   27.4406  -75.5669 C.3       6 UNK        -0.1791 
     42 N         -76.1294   26.2720  -74.4250 N.am      6 UNK        -0.4762 
     43 C         -74.9749   26.2015  -73.7432 C.2       6 UNK         0.5007 
     44 O         -74.1082   27.0782  -73.7801 O.2       6 UNK        -0.5032 
     45 CA        -74.7103   24.9123  -72.9317 C.3       5 UNK         0.0783 
     46 C46       -75.1009   25.0328  -71.4350 C.3       11 UNK        -0.0857 
     47 S47       -76.8902   24.8336  -71.0941 S.3       11 UNK        -0.2512 
     48 C48       -77.2715   26.2551  -70.0215 C.3       11 UNK         0.0225 
     49 N         -75.3020   23.7232  -73.5501 N.am      5 UNK        -0.4615 
     50 C         -74.9169   23.1872  -74.7139 C.2       4 UNK         0.5053 
     51 O         -73.9763   23.6138  -75.3802 O.2       4 UNK        -0.5105 
     52 CA        -75.7577   22.0129  -75.2454 C.3       4 UNK         0.0263 
     53 CB        -75.2292   20.6797  -74.6939 C.3       4 UNK        -0.1981 
     54 N         -77.1871   22.1442  -74.9368 N.am      4 UNK        -0.4224 
     55 C         -77.9672   23.1344  -75.3897 C.2       3 UNK         0.4895 
     56 O         -77.5716   24.0301  -76.1416 O.2       3 UNK        -0.5091 
     57 CA        -79.4053   23.1714  -74.8640 C.3       3 UNK         0.0250 
     58 CB        -79.4289   23.7598  -73.4383 C.3       3 UNK        -0.1996 
     59 N         -80.2073   23.9848  -75.7755 N.am      3 UNK        -0.4254 
     60 C         -81.5380   24.1098  -75.7508 C.2       2 UNK         0.5004 
     61 O         -82.2715   23.5446  -74.9373 O.2       2 UNK        -0.5226 
     62 CA        -82.1653   25.0160  -76.8221 C.3       2 UNK         0.0269 
     63 CB        -82.8179   24.1607  -77.9205 C.3       2 UNK        -0.1926 
     64 N         -83.1840   25.8986  -76.2419 N.am      2 UNK        -0.4687 
     65 C         -83.0154   26.9558  -75.4294 C.2       1 UNK         0.5165 
     66 O         -83.9873   27.5813  -75.0039 O.2       1 UNK        -0.5079 
     67 H67       -81.3462   31.3861  -75.6316 H         1 UNK         0.0900 
     68 H68       -80.2455   31.2305  -77.0021 H         1 UNK         0.0900 
     69 H69       -81.9904   31.2689  -77.2707 H         1 UNK         0.0900 
     70 H70       -81.6390   29.4623  -74.5041 H         1 UNK         0.2959 
     71 H71       -80.8613   26.9378  -75.6559 H         1 UNK         0.1079 
     72 H72       -81.5295   26.0349  -73.3489 H         1 UNK         0.0837 
     73 H73       -80.1386   27.0398  -73.4596 H         1 UNK         0.0837 
     74 H74       -80.7085   30.0983  -72.9516 H         1 UNK         0.0685 
     75 H75       -80.9650   30.0933  -71.2311 H         1 UNK         0.0685 
     76 H76       -79.7269   27.2905  -70.6280 H         1 UNK         0.1434 
     77 H77       -75.5504   27.9718  -71.1926 H         1 UNK         0.1329 
     78 H78       -78.3904   30.6398  -72.9562 H         1 UNK         0.1335 
     79 H79       -75.1470   29.5508  -73.4613 H         1 UNK         0.0680 
     80 H80       -76.1007   31.0030  -73.3866 H         1 UNK         0.0680 
     81 H81       -72.8815   29.6680  -70.4073 H         1 UNK         0.1032 
     82 H82       -73.6156   28.6449  -71.6029 H         1 UNK         0.1032 
     83 H83       -71.7552   30.9421  -72.3096 H         1 UNK         0.0461 
     84 H84       -69.2454   27.9133  -72.6111 H         1 UNK         0.3453 
     85 H85       -70.3256   28.4201  -73.8859 H         1 UNK         0.3453 
     86 H86       -72.9972   28.8184  -73.9711 H         1 UNK         0.2984 
     87 H87       -73.5386   30.1386  -76.3243 H         1 UNK         0.0554 
     88 H88       -71.8927   31.6595  -77.3701 H         1 UNK         0.0847 
     89 H89       -72.1137   30.2372  -78.3745 H         1 UNK         0.0847 
     90 H90       -70.6709   30.3959  -77.3734 H         1 UNK         0.0847 
     91 H91       -73.2814   27.9825  -76.6808 H         1 UNK         0.3141 
     92 H92       -70.7583   25.8487  -77.2835 H         1 UNK         0.0743 
     93 H93       -71.7869   25.5921  -74.4065 H         1 UNK         0.0784 
     94 H94       -71.1977   24.2566  -75.3964 H         1 UNK         0.0784 
     95 H95       -70.1050   25.5412  -74.9105 H         1 UNK         0.0784 
     96 H96       -73.3877   25.2233  -76.2811 H         1 UNK         0.3213 
     97 H97       -75.1709   26.1863  -79.2089 H         1 UNK         0.0855 
     98 H98       -74.6183   23.4368  -77.9701 H         1 UNK         0.0814 
     99 H99       -74.5115   23.8552  -79.6708 H         1 UNK         0.0814 
    100 H100      -76.0740   23.8679  -78.8666 H         1 UNK         0.0814 
    101 H101      -76.1050   25.1726  -76.7290 H         1 UNK         0.3105 
    102 H102      -76.1357   28.2894  -74.9554 H         1 UNK         0.0547 
    103 H103      -78.2281   28.1514  -76.3563 H         1 UNK         0.0837 
    104 H104      -78.4274   26.4852  -75.8337 H         1 UNK         0.0837 
    105 H105      -78.4504   27.8037  -74.6563 H         1 UNK         0.0837 
    106 H106      -76.7688   25.4929  -74.3698 H         1 UNK         0.3020 
    107 H107      -73.6271   24.7727  -72.9619 H         1 UNK         0.1245 
    108 H108      -74.7196   25.9583  -71.0051 H         1 UNK         0.0781 
    109 H109      -74.5929   24.2426  -70.8801 H         1 UNK         0.0781 
    110 H110      -76.4392   26.4503  -69.3437 H         1 UNK         0.0836 
    111 H111      -78.1191   25.9915  -69.3870 H         1 UNK         0.0836 
    112 H112      -76.0847   23.3175  -73.0582 H         1 UNK         0.3022 
    113 H113      -75.6530   21.9971  -76.3319 H         1 UNK         0.0747 
    114 H114      -75.7598   19.8322  -75.1282 H         1 UNK         0.0793 
    115 H115      -74.1717   20.5526  -74.9305 H         1 UNK         0.0793 
    116 H116      -75.3298   20.6202  -73.6094 H         1 UNK         0.0793 
    117 H117      -77.5849   21.4493  -74.3206 H         1 UNK         0.3047 
    118 H118      -79.8046   22.1550  -74.8555 H         1 UNK         0.0822 
    119 H119      -78.8235   23.1615  -72.7569 H         1 UNK         0.0807 
    120 H120      -80.4354   23.7781  -73.0217 H         1 UNK         0.0807 
    121 H121      -79.0389   24.7780  -73.4143 H         1 UNK         0.0807 
    122 H122      -79.6571   24.4343  -76.4981 H         1 UNK         0.2946 
    123 H123      -81.3939   25.6214  -77.3026 H         1 UNK         0.1144 
    124 H124      -83.2447   24.7827  -78.7078 H         1 UNK         0.0793 
    125 H125      -83.6138   23.5287  -77.5235 H         1 UNK         0.0793 
    126 H126      -82.0853   23.5034  -78.3912 H         1 UNK         0.0793 
    127 H127      -84.1355   25.6295  -76.4440 H         1 UNK         0.2896 
@<TRIPOS>BOND
     1    1    2 1    
     2    1   67 1    
     3    1   68 1    
     4    1   69 1    
     5    2    3 2    
     6    2    4 am   BACKBONE|DICT|INTERRES
     7    4    5 1    
     8    4   70 1    
     9    5    6 1    
    10    5   65 1    
    11    5   71 1    
    12    6    7 1    
    13    6   72 1    
    14    6   73 1    
    15    7    8 1    
    16    8    9 1    
    17    8   74 1    
    18    8   75 1    
    19    9   10 ar   
    20    9   14 ar   
    21   10   11 ar   
    22   10   76 1    
    23   11   12 ar   
    24   11   48 1    
    25   12   13 ar   
    26   12   77 1    
    27   13   14 ar   
    28   13   15 1    
    29   14   78 1    
    30   15   16 1    
    31   15   79 1    
    32   15   80 1    
    33   16   17 1    
    34   17   18 1    
    35   17   81 1    
    36   17   82 1    
    37   18   19 1    
    38   18   22 1    
    39   18   83 1    
    40   19   20 am   BACKBONE|DICT|INTERRES
    41   19   21 2    
    42   20   84 1    
    43   20   85 1    
    44   22   23 am   BACKBONE|DICT|INTERRES
    45   22   86 1    
    46   23   24 2    
    47   23   25 1    
    48   25   26 1    
    49   25   27 1    
    50   25   87 1    
    51   26   88 1    
    52   26   89 1    
    53   26   90 1    
    54   27   28 am   BACKBONE|DICT|INTERRES
    55   27   91 1    
    56   28   29 2    
    57   28   30 1    
    58   30   31 1    
    59   30   32 1    
    60   30   92 1    
    61   31   93 1    
    62   31   94 1    
    63   31   95 1    
    64   32   33 am   BACKBONE|DICT|INTERRES
    65   32   96 1    
    66   33   34 2    
    67   33   35 1    
    68   35   36 1    
    69   35   37 1    
    70   35   97 1    
    71   36   98 1    
    72   36   99 1    
    73   36  100 1    
    74   37   38 am   BACKBONE|DICT|INTERRES
    75   37  101 1    
    76   38   39 2    
    77   38   40 1    
    78   40   41 1    
    79   40   42 1    
    80   40  102 1    
    81   41  103 1    
    82   41  104 1    
    83   41  105 1    
    84   42   43 am   BACKBONE|DICT|INTERRES
    85   42  106 1    
    86   43   44 2    
    87   43   45 1    
    88   45   46 1    
    89   45   49 1    
    90   45  107 1    
    91   46   47 1    
    92   46  108 1    
    93   46  109 1    
    94   47   48 1    
    95   48  110 1    
    96   48  111 1    
    97   49   50 am   BACKBONE|DICT|INTERRES
    98   49  112 1    
    99   50   51 2    
   100   50   52 1    
   101   52   53 1    
   102   52   54 1    
   103   52  113 1    
   104   53  114 1    
   105   53  115 1    
   106   53  116 1    
   107   54   55 am   BACKBONE|DICT|INTERRES
   108   54  117 1    
   109   55   56 2    
   110   55   57 1    
   111   57   58 1    
   112   57   59 1    
   113   57  118 1    
   114   58  119 1    
   115   58  120 1    
   116   58  121 1    
   117   59   60 am   BACKBONE|DICT|INTERRES
   118   59  122 1    
   119   60   61 2    
   120   60   62 1    
   121   62   63 1    
   122   62   64 1    
   123   62  123 1    
   124   63  124 1    
   125   63  125 1    
   126   63  126 1    
   127   64   65 am   BACKBONE|DICT|INTERRES
   128   64  127 1    
   129   65   66 2    
@<TRIPOS>SUBSTRUCTURE
     1 UNK         1 GROUP             0       ****    0 ROOT    
