@<TRIPOS>MOLECULE
3R135
127   129    1
SMALL
USER_CHARGES


@<TRIPOS>ATOM
      1 CA        -86.3979   27.4523  -75.3008 C.3       0 UNK        -0.1998 
      2 C         -85.0021   28.0461  -75.1814 C.2       0 UNK         0.4909 
      3 O         -84.3302   28.2390  -76.1951 O.2       0 UNK        -0.5240 
      4 N         -84.5652   28.3466  -73.9520 N.am      1 UNK        -0.4739 
      5 CA        -83.2234   28.8496  -73.6455 C.3       1 UNK         0.0864 
      6 C6        -83.1951   29.5203  -72.2492 C.3       11 UNK        -0.0881 
      7 S7        -81.6598   30.4628  -71.9261 S.3       11 UNK        -0.2682 
      8 C8        -80.9804   29.6267  -70.4530 C.3       11 UNK         0.0289 
      9 C9        -79.5560   29.1282  -70.6645 C.ar      11 UNK        -0.0687 
     10 C10       -79.2824   27.7562  -70.7192 C.ar      11 UNK        -0.0823 
     11 C11       -77.9632   27.2980  -70.8189 C.ar      11 UNK        -0.0830 
     12 C12       -76.9182   28.2219  -70.8613 C.ar      11 UNK        -0.1021 
     13 C13       -77.1796   29.5937  -70.8565 C.ar      11 UNK        -0.0753 
     14 C14       -78.4999   30.0415  -70.7488 C.ar      11 UNK        -0.0933 
     15 C15       -76.0330   30.5895  -70.9415 C.3       11 UNK         0.0166 
     16 S16       -75.6587   31.0719  -72.6590 S.3       11 UNK        -0.2615 
     17 C17       -74.8862   29.5754  -73.3729 C.3       11 UNK        -0.0865 
     18 CA        -73.3278   29.6029  -73.3179 C.3       10 UNK         0.0862 
     19 C         -72.7265   28.6826  -72.2111 C.2       10 UNK         0.5551 
     20 N         -71.6109   27.9989  -72.4433 N.am      10 UNK        -0.7319 
     21 O         -73.2677   28.5875  -71.1140 O.2       10 UNK        -0.5018 
     22 N         -72.7602   29.3138  -74.6406 N.am      10 UNK        -0.4509 
     23 C         -71.8874   30.0764  -75.3074 C.2       10 UNK         0.4899 
     24 O         -71.5068   31.1833  -74.9225 O.2       10 UNK        -0.4839 
     25 CA        -71.3488   29.4981  -76.6314 C.3       9 UNK         0.0222 
     26 CB        -70.0211   30.1498  -77.0738 C.3       9 UNK        -0.1966 
     27 N         -71.2331   28.0334  -76.6297 N.am      9 UNK        -0.4218 
     28 C         -70.4790   27.2720  -75.8184 C.2       9 UNK         0.5020 
     29 O         -69.7847   27.7342  -74.9116 O.2       9 UNK        -0.5274 
     30 CA        -70.5203   25.7406  -76.0155 C.3       8 UNK         0.0270 
     31 CB        -70.6551   25.0055  -74.6691 C.3       8 UNK        -0.1976 
     32 N         -71.6068   25.3107  -76.8977 N.am      8 UNK        -0.4313 
     33 C         -71.5545   25.2651  -78.2354 C.2       8 UNK         0.5041 
     34 O         -70.5343   25.4810  -78.8893 O.2       8 UNK        -0.5577 
     35 CA        -72.8793   24.9895  -78.9688 C.3       7 UNK         0.0284 
     36 CB        -72.9912   23.5068  -79.3587 C.3       7 UNK        -0.1958 
     37 N         -74.0538   25.3879  -78.1829 N.am      7 UNK        -0.4454 
     38 C         -74.4032   26.6605  -77.9378 C.2       7 UNK         0.5089 
     39 O         -73.7816   27.6316  -78.3678 O.2       7 UNK        -0.5125 
     40 CA        -75.6167   26.8869  -77.0178 C.3       6 UNK         0.0408 
     41 CB        -76.9192   26.7854  -77.8267 C.3       6 UNK        -0.1791 
     42 N         -75.6618   25.9533  -75.8879 N.am      6 UNK        -0.4762 
     43 C         -74.7347   25.8723  -74.9200 C.2       6 UNK         0.5007 
     44 O         -73.7748   26.6377  -74.8445 O.2       6 UNK        -0.5032 
     45 CA        -74.8499   24.7013  -73.9170 C.3       5 UNK         0.0783 
     46 C46       -75.4623   25.1474  -72.5610 C.3       11 UNK        -0.0857 
     47 S47       -77.2855   25.2697  -72.5689 S.3       11 UNK        -0.2512 
     48 C48       -77.6579   25.8084  -70.8706 C.3       11 UNK         0.0225 
     49 N         -75.5353   23.5352  -74.4915 N.am      5 UNK        -0.4615 
     50 C         -75.1227   22.8313  -75.5535 C.2       4 UNK         0.5053 
     51 O         -74.0325   23.0084  -76.0951 O.2       4 UNK        -0.5105 
     52 CA        -76.1290   21.8500  -76.1858 C.3       4 UNK         0.0263 
     53 CB        -76.2299   20.5383  -75.3822 C.3       4 UNK        -0.1981 
     54 N         -77.4453   22.4669  -76.4406 N.am      4 UNK        -0.4224 
     55 C         -78.3521   22.8688  -75.5384 C.2       3 UNK         0.4895 
     56 O         -78.2686   22.6417  -74.3300 O.2       3 UNK        -0.5091 
     57 CA        -79.5010   23.7456  -76.0424 C.3       3 UNK         0.0250 
     58 CB        -80.8355   22.9813  -76.0530 C.3       3 UNK        -0.1996 
     59 N         -79.5723   24.8838  -75.1311 N.am      3 UNK        -0.4254 
     60 C         -80.0035   26.1128  -75.4278 C.2       2 UNK         0.5004 
     61 O         -80.4690   26.4365  -76.5226 O.2       2 UNK        -0.5226 
     62 CA        -79.8330   27.1712  -74.3247 C.3       2 UNK         0.0269 
     63 CB        -78.5705   28.0206  -74.5544 C.3       2 UNK        -0.1926 
     64 N         -80.9824   28.0652  -74.2304 N.am      2 UNK        -0.4687 
     65 C         -82.1829   27.7156  -73.7555 C.2       1 UNK         0.5165 
     66 O         -82.4647   26.5797  -73.3627 O.2       1 UNK        -0.5079 
     67 H67       -87.0240   28.0878  -75.9265 H         1 UNK         0.0900 
     68 H68       -86.3471   26.4654  -75.7599 H         1 UNK         0.0900 
     69 H69       -86.8823   27.3500  -74.3299 H         1 UNK         0.0900 
     70 H70       -85.1480   28.1353  -73.1544 H         1 UNK         0.2959 
     71 H71       -82.9810   29.6105  -74.3915 H         1 UNK         0.1079 
     72 H72       -84.0185   30.2324  -72.1733 H         1 UNK         0.0837 
     73 H73       -83.3770   28.7825  -71.4664 H         1 UNK         0.0837 
     74 H74       -80.9870   30.3347  -69.6230 H         1 UNK         0.0685 
     75 H75       -81.6210   28.8021  -70.1400 H         1 UNK         0.0685 
     76 H76       -80.0953   27.0447  -70.6663 H         1 UNK         0.1434 
     77 H77       -75.8973   27.8708  -70.9118 H         1 UNK         0.1329 
     78 H78       -78.7069   31.1026  -70.7189 H         1 UNK         0.1335 
     79 H79       -75.1405   30.1904  -70.4612 H         1 UNK         0.0680 
     80 H80       -76.2917   31.4891  -70.3812 H         1 UNK         0.0680 
     81 H81       -75.2967   28.6683  -72.9339 H         1 UNK         0.1032 
     82 H82       -75.2264   29.5389  -74.4092 H         1 UNK         0.1032 
     83 H83       -73.0165   30.6064  -73.0243 H         1 UNK         0.0461 
     84 H84       -71.1243   28.0732  -73.3281 H         1 UNK         0.3453 
     85 H85       -71.2355   27.4167  -71.7126 H         1 UNK         0.3453 
     86 H86       -72.9834   28.3877  -74.9953 H         1 UNK         0.2984 
     87 H87       -72.0982   29.7374  -77.3872 H         1 UNK         0.0554 
     88 H88       -70.1395   31.2247  -77.2154 H         1 UNK         0.0847 
     89 H89       -69.6725   29.7375  -78.0206 H         1 UNK         0.0847 
     90 H90       -69.2331   30.0049  -76.3340 H         1 UNK         0.0847 
     91 H91       -71.8148   27.5637  -77.3127 H         1 UNK         0.3141 
     92 H92       -69.5670   25.4506  -76.4618 H         1 UNK         0.0743 
     93 H93       -69.7910   25.1967  -74.0314 H         1 UNK         0.0784 
     94 H94       -71.5388   25.3278  -74.1187 H         1 UNK         0.0784 
     95 H95       -70.7191   23.9261  -74.8082 H         1 UNK         0.0784 
     96 H96       -72.4928   25.1128  -76.4528 H         1 UNK         0.3213 
     97 H97       -72.8726   25.5804  -79.8877 H         1 UNK         0.0855 
     98 H98       -72.9657   22.8523  -78.4874 H         1 UNK         0.0814 
     99 H99       -72.1630   23.2139  -80.0055 H         1 UNK         0.0814 
    100 H100      -73.9131   23.3064  -79.9047 H         1 UNK         0.0814 
    101 H101      -74.5807   24.6439  -77.7477 H         1 UNK         0.3105 
    102 H102      -75.5430   27.8984  -76.6124 H         1 UNK         0.0547 
    103 H103      -77.7859   27.0525  -77.2253 H         1 UNK         0.0837 
    104 H104      -76.9025   27.4673  -78.6781 H         1 UNK         0.0837 
    105 H105      -77.0799   25.7807  -78.2191 H         1 UNK         0.0837 
    106 H106      -76.4203   25.2893  -75.8696 H         1 UNK         0.3020 
    107 H107      -73.8225   24.3892  -73.7172 H         1 UNK         0.1245 
    108 H108      -75.0330   26.0951  -72.2307 H         1 UNK         0.0781 
    109 H109      -75.1895   24.4196  -71.7952 H         1 UNK         0.0781 
    110 H110      -76.8265   25.5713  -70.2052 H         1 UNK         0.0836 
    111 H111      -78.5110   25.2357  -70.5037 H         1 UNK         0.0836 
    112 H112      -76.4555   23.3240  -74.1139 H         1 UNK         0.3022 
    113 H113      -75.7333   21.5914  -77.1696 H         1 UNK         0.0747 
    114 H114      -76.9299   19.8432  -75.8456 H         1 UNK         0.0793 
    115 H115      -75.2608   20.0399  -75.3360 H         1 UNK         0.0793 
    116 H116      -76.5528   20.7037  -74.3542 H         1 UNK         0.0793 
    117 H117      -77.6202   22.6939  -77.4104 H         1 UNK         0.3047 
    118 H118      -79.2750   24.1002  -77.0506 H         1 UNK         0.0822 
    119 H119      -80.7875   22.1206  -76.7211 H         1 UNK         0.0807 
    120 H120      -81.6522   23.6159  -76.3979 H         1 UNK         0.0807 
    121 H121      -81.0960   22.6123  -75.0600 H         1 UNK         0.0807 
    122 H122      -79.1719   24.7005  -74.2173 H         1 UNK         0.2946 
    123 H123      -79.7369   26.6605  -73.3650 H         1 UNK         0.1144 
    124 H124      -78.4064   28.7147  -73.7292 H         1 UNK         0.0793 
    125 H125      -78.6340   28.6016  -75.4749 H         1 UNK         0.0793 
    126 H126      -77.6810   27.3960  -74.6228 H         1 UNK         0.0793 
    127 H127      -80.8346   29.0179  -74.5294 H         1 UNK         0.2896 
@<TRIPOS>BOND
     1    1    2 1    
     2    1   67 1    
     3    1   68 1    
     4    1   69 1    
     5    2    3 2    
     6    2    4 am   BACKBONE|DICT|INTERRES
     7    4    5 1    
     8    4   70 1    
     9    5    6 1    
    10    5   65 1    
    11    5   71 1    
    12    6    7 1    
    13    6   72 1    
    14    6   73 1    
    15    7    8 1    
    16    8    9 1    
    17    8   74 1    
    18    8   75 1    
    19    9   10 ar   
    20    9   14 ar   
    21   10   11 ar   
    22   10   76 1    
    23   11   12 ar   
    24   11   48 1    
    25   12   13 ar   
    26   12   77 1    
    27   13   14 ar   
    28   13   15 1    
    29   14   78 1    
    30   15   16 1    
    31   15   79 1    
    32   15   80 1    
    33   16   17 1    
    34   17   18 1    
    35   17   81 1    
    36   17   82 1    
    37   18   19 1    
    38   18   22 1    
    39   18   83 1    
    40   19   20 am   BACKBONE|DICT|INTERRES
    41   19   21 2    
    42   20   84 1    
    43   20   85 1    
    44   22   23 am   BACKBONE|DICT|INTERRES
    45   22   86 1    
    46   23   24 2    
    47   23   25 1    
    48   25   26 1    
    49   25   27 1    
    50   25   87 1    
    51   26   88 1    
    52   26   89 1    
    53   26   90 1    
    54   27   28 am   BACKBONE|DICT|INTERRES
    55   27   91 1    
    56   28   29 2    
    57   28   30 1    
    58   30   31 1    
    59   30   32 1    
    60   30   92 1    
    61   31   93 1    
    62   31   94 1    
    63   31   95 1    
    64   32   33 am   BACKBONE|DICT|INTERRES
    65   32   96 1    
    66   33   34 2    
    67   33   35 1    
    68   35   36 1    
    69   35   37 1    
    70   35   97 1    
    71   36   98 1    
    72   36   99 1    
    73   36  100 1    
    74   37   38 am   BACKBONE|DICT|INTERRES
    75   37  101 1    
    76   38   39 2    
    77   38   40 1    
    78   40   41 1    
    79   40   42 1    
    80   40  102 1    
    81   41  103 1    
    82   41  104 1    
    83   41  105 1    
    84   42   43 am   BACKBONE|DICT|INTERRES
    85   42  106 1    
    86   43   44 2    
    87   43   45 1    
    88   45   46 1    
    89   45   49 1    
    90   45  107 1    
    91   46   47 1    
    92   46  108 1    
    93   46  109 1    
    94   47   48 1    
    95   48  110 1    
    96   48  111 1    
    97   49   50 am   BACKBONE|DICT|INTERRES
    98   49  112 1    
    99   50   51 2    
   100   50   52 1    
   101   52   53 1    
   102   52   54 1    
   103   52  113 1    
   104   53  114 1    
   105   53  115 1    
   106   53  116 1    
   107   54   55 am   BACKBONE|DICT|INTERRES
   108   54  117 1    
   109   55   56 2    
   110   55   57 1    
   111   57   58 1    
   112   57   59 1    
   113   57  118 1    
   114   58  119 1    
   115   58  120 1    
   116   58  121 1    
   117   59   60 am   BACKBONE|DICT|INTERRES
   118   59  122 1    
   119   60   61 2    
   120   60   62 1    
   121   62   63 1    
   122   62   64 1    
   123   62  123 1    
   124   63  124 1    
   125   63  125 1    
   126   63  126 1    
   127   64   65 am   BACKBONE|DICT|INTERRES
   128   64  127 1    
   129   65   66 2    
@<TRIPOS>SUBSTRUCTURE
     1 UNK         1 GROUP             0       ****    0 ROOT    
