@<TRIPOS>MOLECULE
3R135
127   129    1
SMALL
USER_CHARGES


@<TRIPOS>ATOM
      1 CA        -83.9522   28.3612  -71.5734 C.3       0 UNK        -0.1998 
      2 C         -83.6012   28.3679  -73.0535 C.2       0 UNK         0.4909 
      3 O         -84.4699   28.6233  -73.8880 O.2       0 UNK        -0.5240 
      4 N         -82.3344   28.0861  -73.3860 N.am      1 UNK        -0.4739 
      5 CA        -81.8150   28.0583  -74.7618 C.3       1 UNK         0.0864 
      6 C6        -80.2747   28.2159  -74.7968 C.3       11 UNK        -0.0881 
      7 S7        -79.7653   29.8548  -74.1839 S.3       11 UNK        -0.2682 
      8 C8        -77.9899   29.8608  -74.5784 C.3       11 UNK         0.0289 
      9 C9        -77.1411   29.6039  -73.3428 C.ar      11 UNK        -0.0687 
     10 C10       -76.5252   28.3662  -73.1403 C.ar      11 UNK        -0.0823 
     11 C11       -75.6953   28.1572  -72.0328 C.ar      11 UNK        -0.0830 
     12 C12       -75.5084   29.1896  -71.1082 C.ar      11 UNK        -0.1021 
     13 C13       -76.1266   30.4291  -71.2974 C.ar      11 UNK        -0.0753 
     14 C14       -76.9377   30.6302  -72.4170 C.ar      11 UNK        -0.0933 
     15 C15       -75.9243   31.5592  -70.3005 C.3       11 UNK         0.0166 
     16 S16       -74.6987   32.7690  -70.8923 S.3       11 UNK        -0.2615 
     17 C17       -73.1216   31.9220  -70.5351 C.3       11 UNK        -0.0865 
     18 CA        -72.2637   31.6722  -71.8023 C.3       10 UNK         0.0862 
     19 C         -70.8609   31.1415  -71.3957 C.2       10 UNK         0.5551 
     20 N         -69.8431   31.9911  -71.4143 N.am      10 UNK        -0.7319 
     21 O         -70.7044   29.9838  -71.0134 O.2       10 UNK        -0.5018 
     22 N         -72.9454   30.7838  -72.7561 N.am      10 UNK        -0.4509 
     23 C         -72.4936   30.4804  -73.9791 C.2       10 UNK         0.4899 
     24 O         -71.5015   30.9962  -74.4999 O.2       10 UNK        -0.4839 
     25 CA        -73.3266   29.4605  -74.7752 C.3       9 UNK         0.0222 
     26 CB        -74.3741   30.1883  -75.6338 C.3       9 UNK        -0.1966 
     27 N         -72.5107   28.5998  -75.6373 N.am      9 UNK        -0.4218 
     28 C         -71.5481   27.7650  -75.2168 C.2       9 UNK         0.5020 
     29 O         -71.2478   27.5975  -74.0332 O.2       9 UNK        -0.5274 
     30 CA        -70.8481   26.9452  -76.3120 C.3       8 UNK         0.0270 
     31 CB        -69.7331   26.0277  -75.7733 C.3       8 UNK        -0.1976 
     32 N         -71.8583   26.1405  -76.9912 N.am      8 UNK        -0.4313 
     33 C         -71.9295   25.9157  -78.3094 C.2       8 UNK         0.5041 
     34 O         -71.0787   26.2984  -79.1138 O.2       8 UNK        -0.5577 
     35 CA        -73.1651   25.1515  -78.8331 C.3       7 UNK         0.0284 
     36 CB        -72.8251   23.6687  -79.0541 C.3       7 UNK        -0.1958 
     37 N         -74.3341   25.2481  -77.9527 N.am      7 UNK        -0.4454 
     38 C         -74.9685   26.3871  -77.6419 C.2       7 UNK         0.5089 
     39 O         -74.7294   27.4676  -78.1813 O.2       7 UNK        -0.5125 
     40 CA        -76.0050   26.3382  -76.5032 C.3       6 UNK         0.0408 
     41 CB        -77.4271   26.4428  -77.0723 C.3       6 UNK        -0.1791 
     42 N         -75.9222   25.1823  -75.5943 N.am      6 UNK        -0.4762 
     43 C         -74.8425   24.8105  -74.8825 C.2       6 UNK         0.5007 
     44 O         -73.7444   25.3533  -74.9946 O.2       6 UNK        -0.5032 
     45 CA        -74.9854   23.6459  -73.8759 C.3       5 UNK         0.0783 
     46 C46       -74.8205   24.1106  -72.4047 C.3       11 UNK        -0.0857 
     47 S47       -76.0200   25.3852  -71.8714 S.3       11 UNK        -0.2512 
     48 C48       -74.9330   26.8487  -71.8814 C.3       11 UNK         0.0225 
     49 N         -76.2067   22.8602  -74.0553 N.am      5 UNK        -0.4615 
     50 C         -76.4292   22.0071  -75.0622 C.2       4 UNK         0.5053 
     51 O         -75.6274   21.8039  -75.9747 O.2       4 UNK        -0.5105 
     52 CA        -77.7764   21.2620  -75.0665 C.3       4 UNK         0.0263 
     53 CB        -78.4746   21.2185  -73.6871 C.3       4 UNK        -0.1981 
     54 N         -78.6890   21.7918  -76.0843 N.am      4 UNK        -0.4224 
     55 C         -79.1222   23.0559  -76.2032 C.2       3 UNK         0.4895 
     56 O         -78.7591   23.9791  -75.4709 O.2       3 UNK        -0.5091 
     57 CA        -80.1311   23.3588  -77.3292 C.3       3 UNK         0.0250 
     58 CB        -80.5252   22.1365  -78.1910 C.3       3 UNK        -0.1996 
     59 N         -81.3246   24.0293  -76.8027 N.am      3 UNK        -0.4254 
     60 C         -82.1751   23.5710  -75.8723 C.2       2 UNK         0.5004 
     61 O         -82.0957   22.4553  -75.3538 O.2       2 UNK        -0.5226 
     62 CA        -83.2967   24.5386  -75.4448 C.3       2 UNK         0.0269 
     63 CB        -84.2778   23.9055  -74.4394 C.3       2 UNK        -0.1926 
     64 N         -82.7689   25.7775  -74.8652 N.am      2 UNK        -0.4687 
     65 C         -82.2626   26.8103  -75.5542 C.2       1 UNK         0.5165 
     66 O         -82.1440   26.8031  -76.7811 O.2       1 UNK        -0.5079 
     67 H67       -83.0899   28.1232  -70.9506 H         1 UNK         0.0900 
     68 H68       -84.7284   27.6225  -71.3750 H         1 UNK         0.0900 
     69 H69       -84.3272   29.3391  -71.2729 H         1 UNK         0.0900 
     70 H70       -81.6556   27.9076  -72.6592 H         1 UNK         0.2959 
     71 H71       -82.2455   28.9095  -75.2951 H         1 UNK         0.1079 
     72 H72       -79.9073   28.1179  -75.8202 H         1 UNK         0.0837 
     73 H73       -79.7823   27.4373  -74.2104 H         1 UNK         0.0837 
     74 H74       -77.7300   30.8357  -74.9934 H         1 UNK         0.0685 
     75 H75       -77.7677   29.1338  -75.3609 H         1 UNK         0.0685 
     76 H76       -76.6739   27.5675  -73.8520 H         1 UNK         0.1434 
     77 H77       -74.8684   29.0352  -70.2500 H         1 UNK         0.1329 
     78 H78       -77.4088   31.5915  -72.5716 H         1 UNK         0.1335 
     79 H79       -75.6270   31.1727  -69.3243 H         1 UNK         0.0680 
     80 H80       -76.8736   32.0738  -70.1437 H         1 UNK         0.0680 
     81 H81       -72.5760   32.5530  -69.8305 H         1 UNK         0.1032 
     82 H82       -73.3062   30.9845  -70.0080 H         1 UNK         0.1032 
     83 H83       -72.1295   32.6309  -72.3080 H         1 UNK         0.0461 
     84 H84       -69.9661   32.9449  -71.7177 H         1 UNK         0.3453 
     85 H85       -68.9296   31.6686  -71.1352 H         1 UNK         0.3453 
     86 H86       -73.7887   30.3410  -72.4193 H         1 UNK         0.2984 
     87 H87       -73.8429   28.8093  -74.0703 H         1 UNK         0.0554 
     88 H88       -75.0332   29.4874  -76.1449 H         1 UNK         0.0847 
     89 H89       -73.9058   30.8202  -76.3895 H         1 UNK         0.0847 
     90 H90       -75.0033   30.8330  -75.0188 H         1 UNK         0.0847 
     91 H91       -72.6908   28.6578  -76.6296 H         1 UNK         0.3141 
     92 H92       -70.4038   27.6589  -77.0092 H         1 UNK         0.0743 
     93 H93       -70.1245   25.2905  -75.0711 H         1 UNK         0.0784 
     94 H94       -69.2383   25.4902  -76.5822 H         1 UNK         0.0784 
     95 H95       -68.9693   26.6059  -75.2520 H         1 UNK         0.0784 
     96 H96       -72.6094   25.8044  -76.3881 H         1 UNK         0.3213 
     97 H97       -73.4359   25.5914  -79.7954 H         1 UNK         0.0855 
     98 H98       -72.5664   23.1702  -78.1189 H         1 UNK         0.0814 
     99 H99       -71.9738   23.5601  -79.7277 H         1 UNK         0.0814 
    100 H100      -73.6611   23.1312  -79.5022 H         1 UNK         0.0814 
    101 H101      -74.6025   24.4113  -77.4543 H         1 UNK         0.3105 
    102 H102      -75.8209   27.2245  -75.8963 H         1 UNK         0.0547 
    103 H103      -77.5409   27.3378  -77.6857 H         1 UNK         0.0837 
    104 H104      -77.6704   25.5846  -77.6987 H         1 UNK         0.0837 
    105 H105      -78.1694   26.5002  -76.2771 H         1 UNK         0.0837 
    106 H106      -76.7895   24.6776  -75.4358 H         1 UNK         0.3020 
    107 H107      -74.1480   22.9770  -74.0895 H         1 UNK         0.1245 
    108 H108      -73.8037   24.4735  -72.2419 H         1 UNK         0.0781 
    109 H109      -74.9234   23.2542  -71.7364 H         1 UNK         0.0781 
    110 H110      -74.2226   26.7808  -72.7061 H         1 UNK         0.0836 
    111 H111      -74.3373   26.8452  -70.9673 H         1 UNK         0.0836 
    112 H112      -76.9389   23.0120  -73.3764 H         1 UNK         0.3022 
    113 H113      -77.5531   20.2330  -75.3527 H         1 UNK         0.0747 
    114 H114      -79.3560   20.5778  -73.7197 H         1 UNK         0.0793 
    115 H115      -77.8126   20.8110  -72.9216 H         1 UNK         0.0793 
    116 H116      -78.8040   22.2034  -73.3540 H         1 UNK         0.0793 
    117 H117      -79.0293   21.1179  -76.7555 H         1 UNK         0.3047 
    118 H118      -79.6419   24.0789  -77.9861 H         1 UNK         0.0822 
    119 H119      -81.2178   22.4264  -78.9814 H         1 UNK         0.0807 
    120 H120      -81.0095   21.3546  -77.6047 H         1 UNK         0.0807 
    121 H121      -79.6548   21.6988  -78.6818 H         1 UNK         0.0807 
    122 H122      -81.4622   24.9893  -77.1052 H         1 UNK         0.2946 
    123 H123      -83.8628   24.7864  -76.3461 H         1 UNK         0.1144 
    124 H124      -85.0952   24.5862  -74.2005 H         1 UNK         0.0793 
    125 H125      -83.7822   23.6347  -73.5062 H         1 UNK         0.0793 
    126 H126      -84.7243   22.9977  -74.8475 H         1 UNK         0.0793 
    127 H127      -82.8034   25.8570  -73.8593 H         1 UNK         0.2896 
@<TRIPOS>BOND
     1    1    2 1    
     2    1   67 1    
     3    1   68 1    
     4    1   69 1    
     5    2    3 2    
     6    2    4 am   BACKBONE|DICT|INTERRES
     7    4    5 1    
     8    4   70 1    
     9    5    6 1    
    10    5   65 1    
    11    5   71 1    
    12    6    7 1    
    13    6   72 1    
    14    6   73 1    
    15    7    8 1    
    16    8    9 1    
    17    8   74 1    
    18    8   75 1    
    19    9   10 ar   
    20    9   14 ar   
    21   10   11 ar   
    22   10   76 1    
    23   11   12 ar   
    24   11   48 1    
    25   12   13 ar   
    26   12   77 1    
    27   13   14 ar   
    28   13   15 1    
    29   14   78 1    
    30   15   16 1    
    31   15   79 1    
    32   15   80 1    
    33   16   17 1    
    34   17   18 1    
    35   17   81 1    
    36   17   82 1    
    37   18   19 1    
    38   18   22 1    
    39   18   83 1    
    40   19   20 am   BACKBONE|DICT|INTERRES
    41   19   21 2    
    42   20   84 1    
    43   20   85 1    
    44   22   23 am   BACKBONE|DICT|INTERRES
    45   22   86 1    
    46   23   24 2    
    47   23   25 1    
    48   25   26 1    
    49   25   27 1    
    50   25   87 1    
    51   26   88 1    
    52   26   89 1    
    53   26   90 1    
    54   27   28 am   BACKBONE|DICT|INTERRES
    55   27   91 1    
    56   28   29 2    
    57   28   30 1    
    58   30   31 1    
    59   30   32 1    
    60   30   92 1    
    61   31   93 1    
    62   31   94 1    
    63   31   95 1    
    64   32   33 am   BACKBONE|DICT|INTERRES
    65   32   96 1    
    66   33   34 2    
    67   33   35 1    
    68   35   36 1    
    69   35   37 1    
    70   35   97 1    
    71   36   98 1    
    72   36   99 1    
    73   36  100 1    
    74   37   38 am   BACKBONE|DICT|INTERRES
    75   37  101 1    
    76   38   39 2    
    77   38   40 1    
    78   40   41 1    
    79   40   42 1    
    80   40  102 1    
    81   41  103 1    
    82   41  104 1    
    83   41  105 1    
    84   42   43 am   BACKBONE|DICT|INTERRES
    85   42  106 1    
    86   43   44 2    
    87   43   45 1    
    88   45   46 1    
    89   45   49 1    
    90   45  107 1    
    91   46   47 1    
    92   46  108 1    
    93   46  109 1    
    94   47   48 1    
    95   48  110 1    
    96   48  111 1    
    97   49   50 am   BACKBONE|DICT|INTERRES
    98   49  112 1    
    99   50   51 2    
   100   50   52 1    
   101   52   53 1    
   102   52   54 1    
   103   52  113 1    
   104   53  114 1    
   105   53  115 1    
   106   53  116 1    
   107   54   55 am   BACKBONE|DICT|INTERRES
   108   54  117 1    
   109   55   56 2    
   110   55   57 1    
   111   57   58 1    
   112   57   59 1    
   113   57  118 1    
   114   58  119 1    
   115   58  120 1    
   116   58  121 1    
   117   59   60 am   BACKBONE|DICT|INTERRES
   118   59  122 1    
   119   60   61 2    
   120   60   62 1    
   121   62   63 1    
   122   62   64 1    
   123   62  123 1    
   124   63  124 1    
   125   63  125 1    
   126   63  126 1    
   127   64   65 am   BACKBONE|DICT|INTERRES
   128   64  127 1    
   129   65   66 2    
@<TRIPOS>SUBSTRUCTURE
     1 UNK         1 GROUP             0       ****    0 ROOT    
