@<TRIPOS>MOLECULE
3R135
127   129    1
SMALL
USER_CHARGES


@<TRIPOS>ATOM
      1 CA        -76.5515   26.5817  -69.9446 C.3       0 UNK        -0.1998 
      2 C         -77.7959   26.4309  -70.8050 C.2       0 UNK         0.4909 
      3 O         -77.7509   26.7580  -71.9900 O.2       0 UNK        -0.5240 
      4 N         -78.8948   25.9481  -70.2041 N.am      1 UNK        -0.4739 
      5 CA        -80.2003   25.6719  -70.8264 C.3       1 UNK         0.0864 
      6 C6        -80.8456   26.9229  -71.4878 C.3       11 UNK        -0.0881 
      7 S7        -81.2961   28.2355  -70.2985 S.3       11 UNK        -0.2682 
      8 C8        -79.8999   29.4153  -70.3950 C.3       11 UNK         0.0289 
      9 C9        -79.5432   29.9523  -71.7839 C.ar      11 UNK        -0.0687 
     10 C10       -80.4041   29.8529  -72.8854 C.ar      11 UNK        -0.0823 
     11 C11       -80.0016   30.2884  -74.1502 C.ar      11 UNK        -0.0830 
     12 C12       -78.7579   30.9065  -74.2987 C.ar      11 UNK        -0.1021 
     13 C13       -77.8957   31.0327  -73.2078 C.ar      11 UNK        -0.0753 
     14 C14       -78.2924   30.5532  -71.9570 C.ar      11 UNK        -0.0933 
     15 C15       -76.5254   31.6607  -73.3967 C.3       11 UNK         0.0166 
     16 S16       -75.4314   30.5576  -74.3399 S.3       11 UNK        -0.2615 
     17 C17       -75.0500   29.2526  -73.1176 C.3       11 UNK        -0.0865 
     18 CA        -73.5257   29.1455  -72.8561 C.3       10 UNK         0.0862 
     19 C         -73.2058   28.1275  -71.7226 C.2       10 UNK         0.5551 
     20 N         -72.3817   27.1084  -71.9407 N.am      10 UNK        -0.7319 
     21 O         -73.7033   28.2791  -70.6104 O.2       10 UNK        -0.5018 
     22 N         -72.7881   28.9011  -74.1036 N.am      10 UNK        -0.4509 
     23 C         -71.5384   29.3089  -74.3527 C.2       10 UNK         0.4899 
     24 O         -70.8740   29.9982  -73.5769 O.2       10 UNK        -0.4839 
     25 CA        -70.9340   28.8583  -75.6989 C.3       9 UNK         0.0222 
     26 CB        -69.3916   28.9172  -75.7106 C.3       9 UNK        -0.1966 
     27 N         -71.4054   27.5352  -76.1341 N.am      9 UNK        -0.4218 
     28 C         -71.2923   26.3780  -75.4596 C.2       9 UNK         0.5020 
     29 O         -70.7578   26.2890  -74.3528 O.2       9 UNK        -0.5274 
     30 CA        -71.9055   25.1172  -76.0942 C.3       8 UNK         0.0270 
     31 CB        -72.5036   24.1826  -75.0288 C.3       8 UNK        -0.1976 
     32 N         -72.9381   25.4540  -77.0798 N.am      8 UNK        -0.4313 
     33 C         -72.7735   25.3547  -78.4060 C.2       8 UNK         0.5041 
     34 O         -71.7534   24.9148  -78.9384 O.2       8 UNK        -0.5577 
     35 CA        -73.9193   25.8478  -79.3055 C.3       7 UNK         0.0284 
     36 CB        -74.8624   24.6882  -79.6577 C.3       7 UNK        -0.1958 
     37 N         -74.7029   26.9562  -78.7546 N.am      7 UNK        -0.4454 
     38 C         -74.2405   28.1716  -78.4389 C.2       7 UNK         0.5089 
     39 O         -73.0472   28.4730  -78.4688 O.2       7 UNK        -0.5125 
     40 CA        -75.2725   29.2319  -78.0089 C.3       6 UNK         0.0408 
     41 CB        -75.9826   29.8447  -79.2304 C.3       6 UNK        -0.1791 
     42 N         -76.2365   28.7759  -76.9990 N.am      6 UNK        -0.4762 
     43 C         -77.1799   27.8269  -77.0926 C.2       6 UNK         0.5007 
     44 O         -77.4137   27.1812  -78.1175 O.2       6 UNK        -0.5032 
     45 CA        -77.9519   27.4997  -75.7948 C.3       5 UNK         0.0783 
     46 C46       -79.4937   27.6313  -75.9668 C.3       11 UNK        -0.0857 
     47 S47       -80.0625   29.2036  -76.7236 S.3       11 UNK        -0.2512 
     48 C48       -80.9065   30.0659  -75.3541 C.3       11 UNK         0.0225 
     49 N         -77.5869   26.1601  -75.3096 N.am      5 UNK        -0.4615 
     50 C         -76.3439   25.6879  -75.1001 C.2       4 UNK         0.5053 
     51 O         -75.3123   26.3447  -75.2657 O.2       4 UNK        -0.5105 
     52 CA        -76.2003   24.2195  -74.6562 C.3       4 UNK         0.0263 
     53 CB        -75.8243   24.1185  -73.1693 C.3       4 UNK        -0.1981 
     54 N         -77.3829   23.3972  -74.9195 N.am      4 UNK        -0.4224 
     55 C         -77.7424   22.9682  -76.1385 C.2       3 UNK         0.4895 
     56 O         -77.0832   23.1874  -77.1539 O.2       3 UNK        -0.5091 
     57 CA        -79.0431   22.1524  -76.2693 C.3       3 UNK         0.0250 
     58 CB        -78.7238   20.6792  -76.5751 C.3       3 UNK        -0.1996 
     59 N         -79.9352   22.2106  -75.1075 N.am      3 UNK        -0.4254 
     60 C         -80.5592   23.3068  -74.6569 C.2       2 UNK         0.5004 
     61 O         -80.4106   24.4264  -75.1519 O.2       2 UNK        -0.5226 
     62 CA        -81.5027   23.1353  -73.4487 C.3       2 UNK         0.0269 
     63 CB        -81.4593   21.7350  -72.7916 C.3       2 UNK        -0.1926 
     64 N         -81.2910   24.1831  -72.4439 N.am      2 UNK        -0.4687 
     65 C         -80.1507   24.4613  -71.7921 C.2       1 UNK         0.5165 
     66 O         -79.1250   23.7847  -71.9085 O.2       1 UNK        -0.5079 
     67 H67       -76.6853   26.1566  -68.9503 H         1 UNK         0.0900 
     68 H68       -75.7065   26.0811  -70.4169 H         1 UNK         0.0900 
     69 H69       -76.3016   27.6365  -69.8343 H         1 UNK         0.0900 
     70 H70       -78.8337   25.6849  -69.2307 H         1 UNK         0.2959 
     71 H71       -80.8529   25.3553  -70.0110 H         1 UNK         0.1079 
     72 H72       -81.7803   26.6702  -71.9891 H         1 UNK         0.0837 
     73 H73       -80.1997   27.3074  -72.2751 H         1 UNK         0.0837 
     74 H74       -80.1328   30.2648  -69.7520 H         1 UNK         0.0685 
     75 H75       -79.0238   28.9366  -69.9571 H         1 UNK         0.0685 
     76 H76       -81.3786   29.4002  -72.7740 H         1 UNK         0.1434 
     77 H77       -78.4434   31.2563  -75.2728 H         1 UNK         0.1329 
     78 H78       -77.6189   30.6362  -71.1149 H         1 UNK         0.1335 
     79 H79       -76.6323   32.6012  -73.9391 H         1 UNK         0.0680 
     80 H80       -76.0644   31.9076  -72.4390 H         1 UNK         0.0680 
     81 H81       -75.4486   28.3031  -73.4777 H         1 UNK         0.1032 
     82 H82       -75.5808   29.4591  -72.1870 H         1 UNK         0.1032 
     83 H83       -73.2068   30.1143  -72.4667 H         1 UNK         0.0461 
     84 H84       -71.9197   26.9844  -72.8344 H         1 UNK         0.3453 
     85 H85       -72.1833   26.4720  -71.1861 H         1 UNK         0.3453 
     86 H86       -73.2569   28.3237  -74.7854 H         1 UNK         0.2984 
     87 H87       -71.2965   29.5682  -76.4437 H         1 UNK         0.0554 
     88 H88       -69.0362   29.9305  -75.5195 H         1 UNK         0.0847 
     89 H89       -68.9901   28.6126  -76.6770 H         1 UNK         0.0847 
     90 H90       -68.9564   28.2713  -74.9474 H         1 UNK         0.0847 
     91 H91       -71.8850   27.5272  -77.0291 H         1 UNK         0.3141 
     92 H92       -71.0826   24.5817  -76.5715 H         1 UNK         0.0743 
     93 H93       -73.2318   24.7042  -74.4098 H         1 UNK         0.0784 
     94 H94       -72.9903   23.3188  -75.4814 H         1 UNK         0.0784 
     95 H95       -71.7286   23.8018  -74.3623 H         1 UNK         0.0784 
     96 H96       -73.8048   25.8367  -76.7142 H         1 UNK         0.3213 
     97 H97       -73.4658   26.2079  -80.2314 H         1 UNK         0.0855 
     98 H98       -75.3706   24.3059  -78.7728 H         1 UNK         0.0814 
     99 H99       -74.3138   23.8575  -80.1038 H         1 UNK         0.0814 
    100 H100      -75.6235   24.9963  -80.3747 H         1 UNK         0.0814 
    101 H101      -75.7076   26.8158  -78.6627 H         1 UNK         0.3105 
    102 H102      -74.7096   30.0329  -77.5269 H         1 UNK         0.0547 
    103 H103      -75.2587   30.2674  -79.9283 H         1 UNK         0.0837 
    104 H104      -76.5672   29.1064  -79.7798 H         1 UNK         0.0837 
    105 H105      -76.6549   30.6498  -78.9339 H         1 UNK         0.0837 
    106 H106      -76.1054   29.2079  -76.0919 H         1 UNK         0.3020 
    107 H107      -77.6461   28.2058  -75.0196 H         1 UNK         0.1245 
    108 H108      -79.9844   27.4968  -75.0014 H         1 UNK         0.0781 
    109 H109      -79.8629   26.8208  -76.5981 H         1 UNK         0.0781 
    110 H110      -81.7934   29.4935  -75.0775 H         1 UNK         0.0836 
    111 H111      -81.2630   31.0327  -75.7116 H         1 UNK         0.0836 
    112 H112      -78.3617   25.5271  -75.1582 H         1 UNK         0.3022 
    113 H113      -75.3738   23.8040  -75.2348 H         1 UNK         0.0747 
    114 H114      -75.4887   23.1133  -72.9147 H         1 UNK         0.0793 
    115 H115      -75.0191   24.8071  -72.9103 H         1 UNK         0.0793 
    116 H116      -76.6678   24.3595  -72.5264 H         1 UNK         0.0793 
    117 H117      -77.9843   23.1955  -74.1314 H         1 UNK         0.3047 
    118 H118      -79.5880   22.5666  -77.1203 H         1 UNK         0.0822 
    119 H119      -79.6309   20.1072  -76.7714 H         1 UNK         0.0807 
    120 H120      -78.1952   20.2013  -75.7492 H         1 UNK         0.0807 
    121 H121      -78.0919   20.5906  -77.4602 H         1 UNK         0.0807 
    122 H122      -80.1012   21.3390  -74.6252 H         1 UNK         0.2946 
    123 H123      -82.5104   23.2830  -73.8410 H         1 UNK         0.1144 
    124 H124      -81.7630   20.9560  -73.4922 H         1 UNK         0.0793 
    125 H125      -82.1467   21.6803  -71.9473 H         1 UNK         0.0793 
    126 H126      -80.4654   21.4831  -72.4198 H         1 UNK         0.0793 
    127 H127      -82.0833   24.7909  -72.2909 H         1 UNK         0.2896 
@<TRIPOS>BOND
     1    1    2 1    
     2    1   67 1    
     3    1   68 1    
     4    1   69 1    
     5    2    3 2    
     6    2    4 am   BACKBONE|DICT|INTERRES
     7    4    5 1    
     8    4   70 1    
     9    5    6 1    
    10    5   65 1    
    11    5   71 1    
    12    6    7 1    
    13    6   72 1    
    14    6   73 1    
    15    7    8 1    
    16    8    9 1    
    17    8   74 1    
    18    8   75 1    
    19    9   10 ar   
    20    9   14 ar   
    21   10   11 ar   
    22   10   76 1    
    23   11   12 ar   
    24   11   48 1    
    25   12   13 ar   
    26   12   77 1    
    27   13   14 ar   
    28   13   15 1    
    29   14   78 1    
    30   15   16 1    
    31   15   79 1    
    32   15   80 1    
    33   16   17 1    
    34   17   18 1    
    35   17   81 1    
    36   17   82 1    
    37   18   19 1    
    38   18   22 1    
    39   18   83 1    
    40   19   20 am   BACKBONE|DICT|INTERRES
    41   19   21 2    
    42   20   84 1    
    43   20   85 1    
    44   22   23 am   BACKBONE|DICT|INTERRES
    45   22   86 1    
    46   23   24 2    
    47   23   25 1    
    48   25   26 1    
    49   25   27 1    
    50   25   87 1    
    51   26   88 1    
    52   26   89 1    
    53   26   90 1    
    54   27   28 am   BACKBONE|DICT|INTERRES
    55   27   91 1    
    56   28   29 2    
    57   28   30 1    
    58   30   31 1    
    59   30   32 1    
    60   30   92 1    
    61   31   93 1    
    62   31   94 1    
    63   31   95 1    
    64   32   33 am   BACKBONE|DICT|INTERRES
    65   32   96 1    
    66   33   34 2    
    67   33   35 1    
    68   35   36 1    
    69   35   37 1    
    70   35   97 1    
    71   36   98 1    
    72   36   99 1    
    73   36  100 1    
    74   37   38 am   BACKBONE|DICT|INTERRES
    75   37  101 1    
    76   38   39 2    
    77   38   40 1    
    78   40   41 1    
    79   40   42 1    
    80   40  102 1    
    81   41  103 1    
    82   41  104 1    
    83   41  105 1    
    84   42   43 am   BACKBONE|DICT|INTERRES
    85   42  106 1    
    86   43   44 2    
    87   43   45 1    
    88   45   46 1    
    89   45   49 1    
    90   45  107 1    
    91   46   47 1    
    92   46  108 1    
    93   46  109 1    
    94   47   48 1    
    95   48  110 1    
    96   48  111 1    
    97   49   50 am   BACKBONE|DICT|INTERRES
    98   49  112 1    
    99   50   51 2    
   100   50   52 1    
   101   52   53 1    
   102   52   54 1    
   103   52  113 1    
   104   53  114 1    
   105   53  115 1    
   106   53  116 1    
   107   54   55 am   BACKBONE|DICT|INTERRES
   108   54  117 1    
   109   55   56 2    
   110   55   57 1    
   111   57   58 1    
   112   57   59 1    
   113   57  118 1    
   114   58  119 1    
   115   58  120 1    
   116   58  121 1    
   117   59   60 am   BACKBONE|DICT|INTERRES
   118   59  122 1    
   119   60   61 2    
   120   60   62 1    
   121   62   63 1    
   122   62   64 1    
   123   62  123 1    
   124   63  124 1    
   125   63  125 1    
   126   63  126 1    
   127   64   65 am   BACKBONE|DICT|INTERRES
   128   64  127 1    
   129   65   66 2    
@<TRIPOS>SUBSTRUCTURE
     1 UNK         1 GROUP             0       ****    0 ROOT    
