@<TRIPOS>MOLECULE
3R135
127   129    1
SMALL
USER_CHARGES


@<TRIPOS>ATOM
      1 CA        -83.6713   23.3802  -72.8311 C.3       0 UNK        -0.1998 
      2 C         -82.9647   24.6357  -73.3179 C.2       0 UNK         0.4909 
      3 O         -83.0126   24.9471  -74.5090 O.2       0 UNK        -0.5240 
      4 N         -82.3121   25.3601  -72.3986 N.am      1 UNK        -0.4739 
      5 CA        -81.6148   26.6225  -72.6666 C.3       1 UNK         0.0864 
      6 C6        -81.1686   27.3183  -71.3567 C.3       11 UNK        -0.0881 
      7 S7        -81.0116   29.1255  -71.5666 S.3       11 UNK        -0.2682 
      8 C8        -79.4519   29.4842  -70.6995 C.3       11 UNK         0.0289 
      9 C9        -78.2168   29.0921  -71.5013 C.ar      11 UNK        -0.0687 
     10 C10       -77.4644   27.9713  -71.1381 C.ar      11 UNK        -0.0823 
     11 C11       -76.2781   27.6586  -71.8104 C.ar      11 UNK        -0.0830 
     12 C12       -75.8484   28.4786  -72.8605 C.ar      11 UNK        -0.1021 
     13 C13       -76.6025   29.5911  -73.2474 C.ar      11 UNK        -0.0753 
     14 C14       -77.7866   29.8901  -72.5657 C.ar      11 UNK        -0.0933 
     15 C15       -76.1454   30.4719  -74.4018 C.3       11 UNK         0.0166 
     16 S16       -75.4681   32.0610  -73.8334 S.3       11 UNK        -0.2615 
     17 C17       -73.7968   31.5685  -73.2909 C.3       11 UNK        -0.0865 
     18 CA        -72.7489   31.6064  -74.4440 C.3       10 UNK         0.0862 
     19 C         -72.1757   33.0289  -74.7407 C.2       10 UNK         0.5551 
     20 N         -70.9525   33.1462  -75.2446 N.am      10 UNK        -0.7319 
     21 O         -72.8433   34.0396  -74.5366 O.2       10 UNK        -0.5018 
     22 N         -71.7272   30.5567  -74.2925 N.am      10 UNK        -0.4509 
     23 C         -70.8480   30.4628  -73.2821 C.2       10 UNK         0.4899 
     24 O         -70.8004   31.2646  -72.3479 O.2       10 UNK        -0.4839 
     25 CA        -69.8339   29.2979  -73.3246 C.3       9 UNK         0.0222 
     26 CB        -69.4158   28.8254  -71.9152 C.3       9 UNK        -0.1966 
     27 N         -70.2591   28.1629  -74.1544 N.am      9 UNK        -0.4218 
     28 C         -71.3369   27.3866  -73.9719 C.2       9 UNK         0.5020 
     29 O         -72.1157   27.4845  -73.0223 O.2       9 UNK        -0.5274 
     30 CA        -71.5992   26.3421  -75.0690 C.3       8 UNK         0.0270 
     31 CB        -71.4720   24.9125  -74.5193 C.3       8 UNK        -0.1976 
     32 N         -72.9123   26.5219  -75.6930 N.am      8 UNK        -0.4313 
     33 C         -73.2971   27.6194  -76.3634 C.2       8 UNK         0.5041 
     34 O         -72.5846   28.6204  -76.4810 O.2       8 UNK        -0.5577 
     35 CA        -74.7007   27.6152  -77.0111 C.3       7 UNK         0.0284 
     36 CB        -74.7649   28.4908  -78.2786 C.3       7 UNK        -0.1958 
     37 N         -75.2576   26.2864  -77.2855 N.am      7 UNK        -0.4454 
     38 C         -74.7352   25.2844  -78.0091 C.2       7 UNK         0.5089 
     39 O         -73.6682   25.3520  -78.6209 O.2       7 UNK        -0.5125 
     40 CA        -75.5521   23.9740  -78.0048 C.3       6 UNK         0.0408 
     41 CB        -74.7307   22.7435  -78.4425 C.3       6 UNK        -0.1791 
     42 N         -76.2121   23.7451  -76.7107 N.am      6 UNK        -0.4762 
     43 C         -75.6209   23.5951  -75.5136 C.2       6 UNK         0.5007 
     44 O         -74.4046   23.4710  -75.3722 O.2       6 UNK        -0.5032 
     45 CA        -76.5297   23.6413  -74.2610 C.3       5 UNK         0.0783 
     46 C46       -76.4776   25.0275  -73.5735 C.3       11 UNK        -0.0857 
     47 S47       -74.9079   25.3786  -72.7243 S.3       11 UNK        -0.2512 
     48 C48       -75.4495   26.4582  -71.3589 C.3       11 UNK         0.0225 
     49 N         -77.9225   23.3016  -74.5577 N.am      5 UNK        -0.4615 
     50 C         -78.3725   22.0912  -74.9071 C.2       4 UNK         0.5053 
     51 O         -77.6663   21.0851  -74.9695 O.2       4 UNK        -0.5105 
     52 CA        -79.8640   22.0002  -75.2640 C.3       4 UNK         0.0263 
     53 CB        -80.7042   21.7632  -74.0009 C.3       4 UNK        -0.1981 
     54 N         -80.3407   23.1994  -75.9630 N.am      4 UNK        -0.4224 
     55 C         -80.0356   23.4918  -77.2362 C.2       3 UNK         0.4895 
     56 O         -79.3677   22.7598  -77.9665 O.2       3 UNK        -0.5091 
     57 CA        -80.5322   24.8402  -77.7813 C.3       3 UNK         0.0250 
     58 CB        -82.0178   24.7600  -78.1677 C.3       3 UNK        -0.1996 
     59 N         -80.3261   25.9434  -76.8415 N.am      3 UNK        -0.4254 
     60 C         -79.1274   26.4228  -76.4778 C.2       2 UNK         0.5004 
     61 O         -78.0566   25.9969  -76.9049 O.2       2 UNK        -0.5226 
     62 CA        -79.1101   27.5544  -75.4388 C.3       2 UNK         0.0269 
     63 CB        -79.1577   28.9191  -76.1420 C.3       2 UNK        -0.1926 
     64 N         -80.1952   27.4778  -74.4599 N.am      2 UNK        -0.4687 
     65 C         -80.4342   26.4438  -73.6422 C.2       1 UNK         0.5165 
     66 O         -79.7783   25.3976  -73.6405 O.2       1 UNK        -0.5079 
     67 H67       -84.6461   23.6353  -72.4166 H         1 UNK         0.0900 
     68 H68       -83.8274   22.6837  -73.6543 H         1 UNK         0.0900 
     69 H69       -83.0901   22.8717  -72.0621 H         1 UNK         0.0900 
     70 H70       -82.2799   25.0327  -71.4439 H         1 UNK         0.2959 
     71 H71       -82.3536   27.2602  -73.1582 H         1 UNK         0.1079 
     72 H72       -80.2417   26.8868  -70.9741 H         1 UNK         0.0837 
     73 H73       -81.9134   27.1620  -70.5746 H         1 UNK         0.0837 
     74 H74       -79.4574   28.9919  -69.7257 H         1 UNK         0.0685 
     75 H75       -79.4115   30.5546  -70.4925 H         1 UNK         0.0685 
     76 H76       -77.7891   27.3572  -70.3094 H         1 UNK         0.1434 
     77 H77       -74.9226   28.2486  -73.3713 H         1 UNK         0.1329 
     78 H78       -78.3633   30.7596  -72.8502 H         1 UNK         0.1335 
     79 H79       -75.3966   29.9643  -75.0093 H         1 UNK         0.0680 
     80 H80       -76.9891   30.6730  -75.0616 H         1 UNK         0.0680 
     81 H81       -73.4865   32.2098  -72.4640 H         1 UNK         0.1032 
     82 H82       -73.8618   30.5659  -72.8660 H         1 UNK         0.1032 
     83 H83       -73.2643   31.3266  -75.3634 H         1 UNK         0.0461 
     84 H84       -70.5845   34.0634  -75.4424 H         1 UNK         0.3453 
     85 H85       -70.3966   32.3266  -75.4287 H         1 UNK         0.3453 
     86 H86       -71.7220   29.8515  -75.0229 H         1 UNK         0.2984 
     87 H87       -68.9435   29.7013  -73.8086 H         1 UNK         0.0554 
     88 H88       -68.9500   29.6347  -71.3515 H         1 UNK         0.0847 
     89 H89       -68.6921   28.0121  -71.9664 H         1 UNK         0.0847 
     90 H90       -70.2708   28.4780  -71.3344 H         1 UNK         0.0847 
     91 H91       -69.7046   28.0075  -74.9856 H         1 UNK         0.3141 
     92 H92       -70.8528   26.4611  -75.8572 H         1 UNK         0.0743 
     93 H93       -70.4851   24.7475  -74.0852 H         1 UNK         0.0784 
     94 H94       -71.6096   24.1705  -75.3062 H         1 UNK         0.0784 
     95 H95       -72.2074   24.7119  -73.7401 H         1 UNK         0.0784 
     96 H96       -73.5557   25.7451  -75.6168 H         1 UNK         0.3213 
     97 H97       -75.3690   28.0561  -76.2722 H         1 UNK         0.0855 
     98 H98       -74.0861   28.1276  -79.0509 H         1 UNK         0.0814 
     99 H99       -74.4882   29.5230  -78.0597 H         1 UNK         0.0814 
    100 H100      -75.7713   28.5099  -78.6968 H         1 UNK         0.0814 
    101 H101      -76.1931   26.1214  -76.9178 H         1 UNK         0.3105 
    102 H102      -76.3543   24.1121  -78.7312 H         1 UNK         0.0547 
    103 H103      -75.3330   21.8356  -78.4166 H         1 UNK         0.0837 
    104 H104      -73.8591   22.5875  -77.8064 H         1 UNK         0.0837 
    105 H105      -74.3672   22.8623  -79.4638 H         1 UNK         0.0837 
    106 H106      -77.2150   23.8846  -76.7156 H         1 UNK         0.3020 
    107 H107      -76.1515   22.8907  -73.5632 H         1 UNK         0.1245 
    108 H108      -77.2688   25.0925  -72.8248 H         1 UNK         0.0781 
    109 H109      -76.6737   25.8266  -74.2888 H         1 UNK         0.0781 
    110 H110      -74.5653   26.8224  -70.8343 H         1 UNK         0.0836 
    111 H111      -76.0054   25.8515  -70.6424 H         1 UNK         0.0836 
    112 H112      -78.5965   24.0552  -74.4551 H         1 UNK         0.3022 
    113 H113      -79.9954   21.1403  -75.9246 H         1 UNK         0.0747 
    114 H114      -81.7517   21.6018  -74.2524 H         1 UNK         0.0793 
    115 H115      -80.3622   20.8764  -73.4656 H         1 UNK         0.0793 
    116 H116      -80.6418   22.6049  -73.3100 H         1 UNK         0.0793 
    117 H117      -80.8785   23.8670  -75.4253 H         1 UNK         0.3047 
    118 H118      -79.9584   25.0614  -78.6842 H         1 UNK         0.0822 
    119 H119      -82.3550   25.6830  -78.6396 H         1 UNK         0.0807 
    120 H120      -82.6537   24.5750  -77.3008 H         1 UNK         0.0807 
    121 H121      -82.1927   23.9515  -78.8790 H         1 UNK         0.0807 
    122 H122      -81.1504   26.3427  -76.4154 H         1 UNK         0.2946 
    123 H123      -78.1717   27.4873  -74.8859 H         1 UNK         0.1144 
    124 H124      -79.1348   29.7377  -75.4232 H         1 UNK         0.0793 
    125 H125      -80.0597   29.0321  -76.7449 H         1 UNK         0.0793 
    126 H126      -78.3020   29.0444  -76.8072 H         1 UNK         0.0793 
    127 H127      -80.7697   28.3035  -74.3661 H         1 UNK         0.2896 
@<TRIPOS>BOND
     1    1    2 1    
     2    1   67 1    
     3    1   68 1    
     4    1   69 1    
     5    2    3 2    
     6    2    4 am   BACKBONE|DICT|INTERRES
     7    4    5 1    
     8    4   70 1    
     9    5    6 1    
    10    5   65 1    
    11    5   71 1    
    12    6    7 1    
    13    6   72 1    
    14    6   73 1    
    15    7    8 1    
    16    8    9 1    
    17    8   74 1    
    18    8   75 1    
    19    9   10 ar   
    20    9   14 ar   
    21   10   11 ar   
    22   10   76 1    
    23   11   12 ar   
    24   11   48 1    
    25   12   13 ar   
    26   12   77 1    
    27   13   14 ar   
    28   13   15 1    
    29   14   78 1    
    30   15   16 1    
    31   15   79 1    
    32   15   80 1    
    33   16   17 1    
    34   17   18 1    
    35   17   81 1    
    36   17   82 1    
    37   18   19 1    
    38   18   22 1    
    39   18   83 1    
    40   19   20 am   BACKBONE|DICT|INTERRES
    41   19   21 2    
    42   20   84 1    
    43   20   85 1    
    44   22   23 am   BACKBONE|DICT|INTERRES
    45   22   86 1    
    46   23   24 2    
    47   23   25 1    
    48   25   26 1    
    49   25   27 1    
    50   25   87 1    
    51   26   88 1    
    52   26   89 1    
    53   26   90 1    
    54   27   28 am   BACKBONE|DICT|INTERRES
    55   27   91 1    
    56   28   29 2    
    57   28   30 1    
    58   30   31 1    
    59   30   32 1    
    60   30   92 1    
    61   31   93 1    
    62   31   94 1    
    63   31   95 1    
    64   32   33 am   BACKBONE|DICT|INTERRES
    65   32   96 1    
    66   33   34 2    
    67   33   35 1    
    68   35   36 1    
    69   35   37 1    
    70   35   97 1    
    71   36   98 1    
    72   36   99 1    
    73   36  100 1    
    74   37   38 am   BACKBONE|DICT|INTERRES
    75   37  101 1    
    76   38   39 2    
    77   38   40 1    
    78   40   41 1    
    79   40   42 1    
    80   40  102 1    
    81   41  103 1    
    82   41  104 1    
    83   41  105 1    
    84   42   43 am   BACKBONE|DICT|INTERRES
    85   42  106 1    
    86   43   44 2    
    87   43   45 1    
    88   45   46 1    
    89   45   49 1    
    90   45  107 1    
    91   46   47 1    
    92   46  108 1    
    93   46  109 1    
    94   47   48 1    
    95   48  110 1    
    96   48  111 1    
    97   49   50 am   BACKBONE|DICT|INTERRES
    98   49  112 1    
    99   50   51 2    
   100   50   52 1    
   101   52   53 1    
   102   52   54 1    
   103   52  113 1    
   104   53  114 1    
   105   53  115 1    
   106   53  116 1    
   107   54   55 am   BACKBONE|DICT|INTERRES
   108   54  117 1    
   109   55   56 2    
   110   55   57 1    
   111   57   58 1    
   112   57   59 1    
   113   57  118 1    
   114   58  119 1    
   115   58  120 1    
   116   58  121 1    
   117   59   60 am   BACKBONE|DICT|INTERRES
   118   59  122 1    
   119   60   61 2    
   120   60   62 1    
   121   62   63 1    
   122   62   64 1    
   123   62  123 1    
   124   63  124 1    
   125   63  125 1    
   126   63  126 1    
   127   64   65 am   BACKBONE|DICT|INTERRES
   128   64  127 1    
   129   65   66 2    
@<TRIPOS>SUBSTRUCTURE
     1 UNK         1 GROUP             0       ****    0 ROOT    
