@<TRIPOS>MOLECULE
3R135
127   129    1
SMALL
USER_CHARGES


@<TRIPOS>ATOM
      1 CA        -84.1545   24.1945  -69.7557 C.3       0 UNK        -0.1998 
      2 C         -83.4606   24.8637  -70.9323 C.2       0 UNK         0.4909 
      3 O         -84.0939   25.1118  -71.9598 O.2       0 UNK        -0.5240 
      4 N         -82.1598   25.1518  -70.7992 N.am      1 UNK        -0.4739 
      5 CA        -81.3199   25.8034  -71.8128 C.3       1 UNK         0.0864 
      6 C6        -80.0874   26.5072  -71.1799 C.3       11 UNK        -0.0881 
      7 S7        -80.4847   27.6519  -69.8134 S.3       11 UNK        -0.2682 
      8 C8        -80.6987   29.2489  -70.6699 C.3       11 UNK         0.0289 
      9 C9        -79.4936   29.6878  -71.4984 C.ar      11 UNK        -0.0687 
     10 C10       -79.6952   30.1783  -72.7915 C.ar      11 UNK        -0.0823 
     11 C11       -78.6153   30.5927  -73.5757 C.ar      11 UNK        -0.0830 
     12 C12       -77.3203   30.5184  -73.0581 C.ar      11 UNK        -0.1021 
     13 C13       -77.1023   30.0329  -71.7655 C.ar      11 UNK        -0.0753 
     14 C14       -78.1914   29.6258  -70.9871 C.ar      11 UNK        -0.0933 
     15 C15       -75.6867   29.9514  -71.2186 C.3       11 UNK         0.0166 
     16 S16       -74.8072   28.5226  -71.9154 S.3       11 UNK        -0.2615 
     17 C17       -73.1368   28.7729  -71.2251 C.3       11 UNK        -0.0865 
     18 CA        -72.2050   29.5922  -72.1578 C.3       10 UNK         0.0862 
     19 C         -70.8050   29.7506  -71.5027 C.2       10 UNK         0.5551 
     20 N         -70.5423   30.8824  -70.8636 N.am      10 UNK        -0.7319 
     21 O         -69.9816   28.8380  -71.5247 O.2       10 UNK        -0.5018 
     22 N         -72.1616   29.0095  -73.5065 N.am      10 UNK        -0.4509 
     23 C         -71.4600   29.4551  -74.5576 C.2       10 UNK         0.4899 
     24 O         -70.7501   30.4617  -74.5364 O.2       10 UNK        -0.4839 
     25 CA        -71.6203   28.6615  -75.8703 C.3       9 UNK         0.0222 
     26 CB        -70.3955   28.7686  -76.8035 C.3       9 UNK        -0.1966 
     27 N         -72.0222   27.2659  -75.6531 N.am      9 UNK        -0.4218 
     28 C         -71.2996   26.2784  -75.1000 C.2       9 UNK         0.5020 
     29 O         -70.1231   26.3887  -74.7550 O.2       9 UNK        -0.5274 
     30 CA        -72.0152   24.9374  -74.8783 C.3       8 UNK         0.0270 
     31 CB        -72.7035   24.9227  -73.5019 C.3       8 UNK        -0.1976 
     32 N         -73.0080   24.6791  -75.9261 N.am      8 UNK        -0.4313 
     33 C         -72.8909   23.7354  -76.8688 C.2       8 UNK         0.5041 
     34 O         -71.9556   22.9355  -76.9279 O.2       8 UNK        -0.5577 
     35 CA        -73.9980   23.6582  -77.9343 C.3       7 UNK         0.0284 
     36 CB        -75.1194   22.7035  -77.4922 C.3       7 UNK        -0.1958 
     37 N         -74.5696   24.9576  -78.3024 N.am      7 UNK        -0.4454 
     38 C         -73.9169   25.8841  -79.0227 C.2       7 UNK         0.5089 
     39 O         -72.7405   25.7746  -79.3687 O.2       7 UNK        -0.5125 
     40 CA        -74.7015   27.1325  -79.4528 C.3       6 UNK         0.0408 
     41 CB        -75.5332   26.8306  -80.7099 C.3       6 UNK        -0.1791 
     42 N         -75.5904   27.5992  -78.3916 N.am      6 UNK        -0.4762 
     43 C         -75.4459   28.7445  -77.7083 C.2       6 UNK         0.5007 
     44 O         -74.5739   29.5829  -77.9362 O.2       6 UNK        -0.5032 
     45 CA        -76.4606   28.9950  -76.5708 C.3       5 UNK         0.0783 
     46 C46       -77.6974   29.7257  -77.1663 C.3       11 UNK        -0.0857 
     47 S47       -79.1917   29.7364  -76.1191 S.3       11 UNK        -0.2512 
     48 C48       -78.8613   31.1145  -74.9811 C.3       11 UNK         0.0225 
     49 N         -76.8300   27.7733  -75.8471 N.am      5 UNK        -0.4615 
     50 C         -76.0106   26.8351  -75.3515 C.2       4 UNK         0.5053 
     51 O         -74.7820   26.9034  -75.3780 O.2       4 UNK        -0.5105 
     52 CA        -76.6684   25.5478  -74.8254 C.3       4 UNK         0.0263 
     53 CB        -76.7756   25.6049  -73.2954 C.3       4 UNK        -0.1981 
     54 N         -77.9811   25.2509  -75.4251 N.am      4 UNK        -0.4224 
     55 C         -78.2201   25.1427  -76.7457 C.2       3 UNK         0.4895 
     56 O         -77.3301   25.2336  -77.5972 O.2       3 UNK        -0.5091 
     57 CA        -79.6847   25.0052  -77.2122 C.3       3 UNK         0.0250 
     58 CB        -79.8106   24.2076  -78.5287 C.3       3 UNK        -0.1996 
     59 N         -80.6160   24.5107  -76.1889 N.am      3 UNK        -0.4254 
     60 C         -80.6505   23.2863  -75.6423 C.2       2 UNK         0.5004 
     61 O         -79.8838   22.3726  -75.9519 O.2       2 UNK        -0.5226 
     62 CA        -81.7175   23.0653  -74.5457 C.3       2 UNK         0.0269 
     63 CB        -81.4892   21.7573  -73.7586 C.3       2 UNK        -0.1926 
     64 N         -81.8670   24.1867  -73.6010 N.am      2 UNK        -0.4687 
     65 C         -80.8934   24.7916  -72.9033 C.2       1 UNK         0.5165 
     66 O         -79.6994   24.5542  -73.0795 O.2       1 UNK        -0.5079 
     67 H67       -84.9874   24.8082  -69.4136 H         1 UNK         0.0900 
     68 H68       -83.4770   24.0433  -68.9154 H         1 UNK         0.0900 
     69 H69       -84.5467   23.2228  -70.0548 H         1 UNK         0.0900 
     70 H70       -81.6873   24.9183  -69.9373 H         1 UNK         0.2959 
     71 H71       -81.9141   26.5729  -72.3110 H         1 UNK         0.1079 
     72 H72       -79.3955   25.7660  -70.7743 H         1 UNK         0.0837 
     73 H73       -79.5264   27.0426  -71.9469 H         1 UNK         0.0837 
     74 H74       -81.5904   29.1796  -71.2949 H         1 UNK         0.0685 
     75 H75       -80.9058   30.0179  -69.9249 H         1 UNK         0.0685 
     76 H76       -80.6964   30.2345  -73.1971 H         1 UNK         0.1434 
     77 H77       -76.4779   30.8308  -73.6598 H         1 UNK         0.1329 
     78 H78       -78.0259   29.2509  -69.9864 H         1 UNK         0.1335 
     79 H79       -75.1468   30.8673  -71.4638 H         1 UNK         0.0680 
     80 H80       -75.6976   29.8760  -70.1301 H         1 UNK         0.0680 
     81 H81       -73.2223   29.2532  -70.2483 H         1 UNK         0.1032 
     82 H82       -72.7076   27.7869  -71.0351 H         1 UNK         0.1032 
     83 H83       -72.6380   30.5877  -72.2730 H         1 UNK         0.0461 
     84 H84       -69.6458   30.9958  -70.4166 H         1 UNK         0.3453 
     85 H85       -71.2153   31.6325  -70.8314 H         1 UNK         0.3453 
     86 H86       -72.7366   28.1908  -73.6371 H         1 UNK         0.2984 
     87 H87       -72.4584   29.1264  -76.3889 H         1 UNK         0.0554 
     88 H88       -70.5424   28.1927  -77.7173 H         1 UNK         0.0847 
     89 H89       -69.4841   28.4126  -76.3227 H         1 UNK         0.0847 
     90 H90       -70.2204   29.8037  -77.0990 H         1 UNK         0.0847 
     91 H91       -73.0140   27.0894  -75.7973 H         1 UNK         0.3141 
     92 H92       -71.2509   24.1574  -74.8767 H         1 UNK         0.0743 
     93 H93       -73.4396   25.7203  -73.4025 H         1 UNK         0.0784 
     94 H94       -73.2108   23.9746  -73.3226 H         1 UNK         0.0784 
     95 H95       -71.9736   25.0564  -72.7023 H         1 UNK         0.0784 
     96 H96       -73.8006   25.3109  -75.9606 H         1 UNK         0.3213 
     97 H97       -73.5446   23.2348  -78.8336 H         1 UNK         0.0855 
     98 H98       -75.6287   23.0556  -76.5964 H         1 UNK         0.0814 
     99 H99       -74.7214   21.7124  -77.2704 H         1 UNK         0.0814 
    100 H100      -75.8690   22.5831  -78.2746 H         1 UNK         0.0814 
    101 H101      -75.5525   25.0990  -78.0797 H         1 UNK         0.3105 
    102 H102      -73.9735   27.9054  -79.7084 H         1 UNK         0.0547 
    103 H103      -74.8986   26.4729  -81.5219 H         1 UNK         0.0837 
    104 H104      -76.2884   26.0657  -80.5233 H         1 UNK         0.0837 
    105 H105      -76.0443   27.7240  -81.0687 H         1 UNK         0.0837 
    106 H106      -76.3306   26.9647  -78.1103 H         1 UNK         0.3020 
    107 H107      -75.9789   29.6523  -75.8447 H         1 UNK         0.1245 
    108 H108      -78.0060   29.2517  -78.1010 H         1 UNK         0.0781 
    109 H109      -77.4389   30.7521  -77.4338 H         1 UNK         0.0781 
    110 H110      -79.7229   31.7837  -74.9763 H         1 UNK         0.0836 
    111 H111      -78.0165   31.7114  -75.3278 H         1 UNK         0.0836 
    112 H112      -77.8238   27.6272  -75.7488 H         1 UNK         0.3022 
    113 H113      -76.0027   24.7228  -75.0784 H         1 UNK         0.0747 
    114 H114      -77.1129   24.6539  -72.8843 H         1 UNK         0.0793 
    115 H115      -75.8075   25.8170  -72.8414 H         1 UNK         0.0793 
    116 H116      -77.4637   26.3845  -72.9680 H         1 UNK         0.0793 
    117 H117      -78.7447   25.1043  -74.7720 H         1 UNK         0.3047 
    118 H118      -80.0084   26.0246  -77.4278 H         1 UNK         0.0822 
    119 H119      -80.8487   24.1344  -78.8523 H         1 UNK         0.0807 
    120 H120      -79.4157   23.1961  -78.4305 H         1 UNK         0.0807 
    121 H121      -79.2563   24.6913  -79.3341 H         1 UNK         0.0807 
    122 H122      -81.2854   25.1867  -75.8469 H         1 UNK         0.2946 
    123 H123      -82.6695   22.9710  -75.0710 H         1 UNK         0.1144 
    124 H124      -80.5339   21.7672  -73.2323 H         1 UNK         0.0793 
    125 H125      -81.4874   20.8922  -74.4230 H         1 UNK         0.0793 
    126 H126      -82.2760   21.5949  -73.0218 H         1 UNK         0.0793 
    127 H127      -82.8204   24.4475  -73.3638 H         1 UNK         0.2896 
@<TRIPOS>BOND
     1    1    2 1    
     2    1   67 1    
     3    1   68 1    
     4    1   69 1    
     5    2    3 2    
     6    2    4 am   BACKBONE|DICT|INTERRES
     7    4    5 1    
     8    4   70 1    
     9    5    6 1    
    10    5   65 1    
    11    5   71 1    
    12    6    7 1    
    13    6   72 1    
    14    6   73 1    
    15    7    8 1    
    16    8    9 1    
    17    8   74 1    
    18    8   75 1    
    19    9   10 ar   
    20    9   14 ar   
    21   10   11 ar   
    22   10   76 1    
    23   11   12 ar   
    24   11   48 1    
    25   12   13 ar   
    26   12   77 1    
    27   13   14 ar   
    28   13   15 1    
    29   14   78 1    
    30   15   16 1    
    31   15   79 1    
    32   15   80 1    
    33   16   17 1    
    34   17   18 1    
    35   17   81 1    
    36   17   82 1    
    37   18   19 1    
    38   18   22 1    
    39   18   83 1    
    40   19   20 am   BACKBONE|DICT|INTERRES
    41   19   21 2    
    42   20   84 1    
    43   20   85 1    
    44   22   23 am   BACKBONE|DICT|INTERRES
    45   22   86 1    
    46   23   24 2    
    47   23   25 1    
    48   25   26 1    
    49   25   27 1    
    50   25   87 1    
    51   26   88 1    
    52   26   89 1    
    53   26   90 1    
    54   27   28 am   BACKBONE|DICT|INTERRES
    55   27   91 1    
    56   28   29 2    
    57   28   30 1    
    58   30   31 1    
    59   30   32 1    
    60   30   92 1    
    61   31   93 1    
    62   31   94 1    
    63   31   95 1    
    64   32   33 am   BACKBONE|DICT|INTERRES
    65   32   96 1    
    66   33   34 2    
    67   33   35 1    
    68   35   36 1    
    69   35   37 1    
    70   35   97 1    
    71   36   98 1    
    72   36   99 1    
    73   36  100 1    
    74   37   38 am   BACKBONE|DICT|INTERRES
    75   37  101 1    
    76   38   39 2    
    77   38   40 1    
    78   40   41 1    
    79   40   42 1    
    80   40  102 1    
    81   41  103 1    
    82   41  104 1    
    83   41  105 1    
    84   42   43 am   BACKBONE|DICT|INTERRES
    85   42  106 1    
    86   43   44 2    
    87   43   45 1    
    88   45   46 1    
    89   45   49 1    
    90   45  107 1    
    91   46   47 1    
    92   46  108 1    
    93   46  109 1    
    94   47   48 1    
    95   48  110 1    
    96   48  111 1    
    97   49   50 am   BACKBONE|DICT|INTERRES
    98   49  112 1    
    99   50   51 2    
   100   50   52 1    
   101   52   53 1    
   102   52   54 1    
   103   52  113 1    
   104   53  114 1    
   105   53  115 1    
   106   53  116 1    
   107   54   55 am   BACKBONE|DICT|INTERRES
   108   54  117 1    
   109   55   56 2    
   110   55   57 1    
   111   57   58 1    
   112   57   59 1    
   113   57  118 1    
   114   58  119 1    
   115   58  120 1    
   116   58  121 1    
   117   59   60 am   BACKBONE|DICT|INTERRES
   118   59  122 1    
   119   60   61 2    
   120   60   62 1    
   121   62   63 1    
   122   62   64 1    
   123   62  123 1    
   124   63  124 1    
   125   63  125 1    
   126   63  126 1    
   127   64   65 am   BACKBONE|DICT|INTERRES
   128   64  127 1    
   129   65   66 2    
@<TRIPOS>SUBSTRUCTURE
     1 UNK         1 GROUP             0       ****    0 ROOT    
