@<TRIPOS>MOLECULE
3R135
127   129    1
SMALL
USER_CHARGES


@<TRIPOS>ATOM
      1 CA        -81.4036   29.2063  -69.7080 C.3       0 UNK        -0.1998 
      2 C         -82.1998   28.8511  -70.9548 C.2       0 UNK         0.4909 
      3 O         -83.2385   29.4591  -71.2143 O.2       0 UNK        -0.5240 
      4 N         -81.7202   27.8716  -71.7254 N.am      1 UNK        -0.4739 
      5 CA        -82.3301   27.3543  -72.9470 C.3       1 UNK         0.0864 
      6 C6        -82.2468   28.3461  -74.1480 C.3       11 UNK        -0.0881 
      7 S7        -80.6099   28.5118  -74.9467 S.3       11 UNK        -0.2682 
      8 C8        -79.8492   29.8791  -74.0202 C.3       11 UNK         0.0289 
      9 C9        -78.4425   29.5019  -73.5849 C.ar      11 UNK        -0.0687 
     10 C10       -78.2603   28.6795  -72.4719 C.ar      11 UNK        -0.0823 
     11 C11       -76.9809   28.2940  -72.0688 C.ar      11 UNK        -0.0830 
     12 C12       -75.8698   28.7569  -72.7795 C.ar      11 UNK        -0.1021 
     13 C13       -76.0371   29.5768  -73.9006 C.ar      11 UNK        -0.0753 
     14 C14       -77.3261   29.9489  -74.2975 C.ar      11 UNK        -0.0933 
     15 C15       -74.8306   30.0248  -74.7115 C.3       11 UNK         0.0166 
     16 S16       -74.4056   31.7659  -74.3931 S.3       11 UNK        -0.2615 
     17 C17       -73.6002   31.6578  -72.7569 C.3       11 UNK        -0.0865 
     18 CA        -72.0947   32.0625  -72.7962 C.3       10 UNK         0.0862 
     19 C         -71.4273   32.1429  -71.3865 C.2       10 UNK         0.5551 
     20 N         -72.1469   32.5773  -70.3596 N.am      10 UNK        -0.7319 
     21 O         -70.2400   31.8688  -71.2172 O.2       10 UNK        -0.5018 
     22 N         -71.3098   31.2747  -73.7649 N.am      10 UNK        -0.4509 
     23 C         -71.0617   29.9608  -73.6995 C.2       10 UNK         0.4899 
     24 O         -71.4973   29.2110  -72.8221 O.2       10 UNK        -0.4839 
     25 CA        -70.1288   29.4009  -74.7881 C.3       9 UNK         0.0222 
     26 CB        -68.6606   29.5143  -74.3452 C.3       9 UNK        -0.1966 
     27 N         -70.4322   27.9995  -75.0836 N.am      9 UNK        -0.4218 
     28 C         -71.5075   27.5866  -75.7660 C.2       9 UNK         0.5020 
     29 O         -72.2930   28.3546  -76.3267 O.2       9 UNK        -0.5274 
     30 CA        -71.7257   26.0638  -75.8185 C.3       8 UNK         0.0270 
     31 CB        -71.9313   25.4808  -74.4068 C.3       8 UNK        -0.1976 
     32 N         -72.8900   25.7292  -76.6410 N.am      8 UNK        -0.4313 
     33 C         -72.8490   25.4839  -77.9578 C.2       8 UNK         0.5041 
     34 O         -71.8031   25.4649  -78.6101 O.2       8 UNK        -0.5577 
     35 CA        -74.1737   25.1760  -78.6862 C.3       7 UNK         0.0284 
     36 CB        -74.2601   23.6778  -79.0229 C.3       7 UNK        -0.1958 
     37 N         -75.3736   25.5572  -77.9401 N.am      7 UNK        -0.4454 
     38 C         -75.7992   26.8132  -77.7487 C.2       7 UNK         0.5089 
     39 O         -75.2730   27.8015  -78.2600 O.2       7 UNK        -0.5125 
     40 CA        -77.0164   26.9981  -76.8212 C.3       6 UNK         0.0408 
     41 CB        -78.3066   27.0051  -77.6536 C.3       6 UNK        -0.1791 
     42 N         -77.1218   25.9915  -75.7546 N.am      6 UNK        -0.4762 
     43 C         -76.1731   25.7489  -74.8345 C.2       6 UNK         0.5007 
     44 O         -75.0875   26.3251  -74.8148 O.2       6 UNK        -0.5032 
     45 CA        -76.4337   24.6207  -73.8216 C.3       5 UNK         0.0783 
     46 C46       -77.2236   25.0980  -72.5761 C.3       11 UNK        -0.0857 
     47 S47       -76.0896   25.7573  -71.3017 S.3       11 UNK        -0.2512 
     48 C48       -76.8142   27.3726  -70.8687 C.3       11 UNK         0.0225 
     49 N         -77.0584   23.4759  -74.4872 N.am      5 UNK        -0.4615 
     50 C         -76.3605   22.5027  -75.0918 C.2       4 UNK         0.5053 
     51 O         -75.1314   22.4341  -75.0828 O.2       4 UNK        -0.5105 
     52 CA        -77.1549   21.4241  -75.8484 C.3       4 UNK         0.0263 
     53 CB        -77.5029   20.2563  -74.9113 C.3       4 UNK        -0.1981 
     54 N         -78.3794   21.9287  -76.4697 N.am      4 UNK        -0.4224 
     55 C         -78.4226   22.8516  -77.4409 C.2       3 UNK         0.4895 
     56 O         -77.4260   23.3625  -77.9510 O.2       3 UNK        -0.5091 
     57 CA        -79.8202   23.3111  -77.8894 C.3       3 UNK         0.0250 
     58 CB        -80.3267   22.4324  -79.0442 C.3       3 UNK        -0.1996 
     59 N         -80.8217   23.3343  -76.8157 N.am      3 UNK        -0.4254 
     60 C         -80.7251   24.0345  -75.6755 C.2       2 UNK         0.5004 
     61 O         -79.7283   24.6885  -75.3594 O.2       2 UNK        -0.5226 
     62 CA        -81.9330   23.9339  -74.7279 C.3       2 UNK         0.0269 
     63 CB        -81.6966   22.8692  -73.6369 C.3       2 UNK        -0.1926 
     64 N         -82.3269   25.2359  -74.1698 N.am      2 UNK        -0.4687 
     65 C         -81.7153   25.9671  -73.2261 C.2       1 UNK         0.5165 
     66 O         -80.7322   25.5987  -72.5747 O.2       1 UNK        -0.5079 
     67 H67       -80.5311   28.5650  -69.5843 H         1 UNK         0.0900 
     68 H68       -81.0599   30.2388  -69.7650 H         1 UNK         0.0900 
     69 H69       -82.0283   29.1029  -68.8212 H         1 UNK         0.0900 
     70 H70       -80.9064   27.3354  -71.4480 H         1 UNK         0.2959 
     71 H71       -83.3854   27.1826  -72.7229 H         1 UNK         0.1079 
     72 H72       -82.6058   29.3338  -73.8564 H         1 UNK         0.0837 
     73 H73       -82.9403   28.0197  -74.9244 H         1 UNK         0.0837 
     74 H74       -80.4462   30.1296  -73.1428 H         1 UNK         0.0685 
     75 H75       -79.8345   30.7717  -74.6472 H         1 UNK         0.0685 
     76 H76       -79.1214   28.3211  -71.9308 H         1 UNK         0.1434 
     77 H77       -74.8771   28.4480  -72.4808 H         1 UNK         0.1329 
     78 H78       -77.4579   30.5745  -75.1696 H         1 UNK         0.1335 
     79 H79       -73.9688   29.3908  -74.4996 H         1 UNK         0.0680 
     80 H80       -75.0424   29.8980  -75.7743 H         1 UNK         0.0680 
     81 H81       -73.7141   30.6554  -72.3430 H         1 UNK         0.1032 
     82 H82       -74.1625   32.3172  -72.0953 H         1 UNK         0.1032 
     83 H83       -72.0481   33.0851  -73.1725 H         1 UNK         0.0461 
     84 H84       -71.7077   32.6484  -69.4549 H         1 UNK         0.3453 
     85 H85       -73.1115   32.8467  -70.4672 H         1 UNK         0.3453 
     86 H86       -70.8814   31.8094  -74.5064 H         1 UNK         0.2984 
     87 H87       -70.2622   29.9840  -75.7021 H         1 UNK         0.0554 
     88 H88       -68.3917   30.5523  -74.1441 H         1 UNK         0.0847 
     89 H89       -67.9820   29.1494  -75.1166 H         1 UNK         0.0847 
     90 H90       -68.4691   28.9486  -73.4323 H         1 UNK         0.0847 
     91 H91       -69.8557   27.3089  -74.6254 H         1 UNK         0.3141 
     92 H92       -70.8328   25.6070  -76.2505 H         1 UNK         0.0743 
     93 H93       -71.0131   25.5300  -73.8209 H         1 UNK         0.0784 
     94 H94       -72.6956   26.0244  -73.8503 H         1 UNK         0.0784 
     95 H95       -72.2294   24.4327  -74.4471 H         1 UNK         0.0784 
     96 H96       -73.7919   25.8376  -76.1844 H         1 UNK         0.3213 
     97 H97       -74.1643   25.7372  -79.6231 H         1 UNK         0.0855 
     98 H98       -74.3064   23.0656  -78.1209 H         1 UNK         0.0814 
     99 H99       -73.3909   23.3522  -79.5960 H         1 UNK         0.0814 
    100 H100      -75.1432   23.4565  -79.6226 H         1 UNK         0.0814 
    101 H101      -75.9317   24.8022  -77.5556 H         1 UNK         0.3105 
    102 H102      -76.9191   27.9682  -76.3323 H         1 UNK         0.0547 
    103 H103      -79.1959   27.0216  -77.0251 H         1 UNK         0.0837 
    104 H104      -78.3674   26.1309  -78.3002 H         1 UNK         0.0837 
    105 H105      -78.3448   27.8846  -78.2972 H         1 UNK         0.0837 
    106 H106      -78.0050   25.4910  -75.6852 H         1 UNK         0.3020 
    107 H107      -75.4494   24.2953  -73.4746 H         1 UNK         0.1245 
    108 H108      -77.7535   24.2599  -72.1209 H         1 UNK         0.0781 
    109 H109      -77.9963   25.8222  -72.8401 H         1 UNK         0.0781 
    110 H110      -76.1720   27.8602  -70.1342 H         1 UNK         0.0836 
    111 H111      -77.7704   27.2025  -70.3711 H         1 UNK         0.0836 
    112 H112      -78.0645   23.5127  -74.5967 H         1 UNK         0.3022 
    113 H113      -76.5126   21.0441  -76.6459 H         1 UNK         0.0747 
    114 H114      -77.9877   19.4434  -75.4523 H         1 UNK         0.0793 
    115 H115      -76.6033   19.8449  -74.4510 H         1 UNK         0.0793 
    116 H116      -78.1677   20.5687  -74.1049 H         1 UNK         0.0793 
    117 H117      -79.2536   21.5695  -76.1155 H         1 UNK         0.3047 
    118 H118      -79.7266   24.3312  -78.2616 H         1 UNK         0.0822 
    119 H119      -81.2672   22.8083  -79.4475 H         1 UNK         0.0807 
    120 H120      -80.4838   21.3999  -78.7294 H         1 UNK         0.0807 
    121 H121      -79.6088   22.4167  -79.8658 H         1 UNK         0.0807 
    122 H122      -81.6653   22.8060  -76.9879 H         1 UNK         0.2946 
    123 H123      -82.7923   23.6079  -75.3169 H         1 UNK         0.1144 
    124 H124      -81.5872   21.8784  -74.0793 H         1 UNK         0.0793 
    125 H125      -82.5324   22.8214  -72.9390 H         1 UNK         0.0793 
    126 H126      -80.7897   23.0630  -73.0631 H         1 UNK         0.0793 
    127 H127      -83.1180   25.6604  -74.6337 H         1 UNK         0.2896 
@<TRIPOS>BOND
     1    1    2 1    
     2    1   67 1    
     3    1   68 1    
     4    1   69 1    
     5    2    3 2    
     6    2    4 am   BACKBONE|DICT|INTERRES
     7    4    5 1    
     8    4   70 1    
     9    5    6 1    
    10    5   65 1    
    11    5   71 1    
    12    6    7 1    
    13    6   72 1    
    14    6   73 1    
    15    7    8 1    
    16    8    9 1    
    17    8   74 1    
    18    8   75 1    
    19    9   10 ar   
    20    9   14 ar   
    21   10   11 ar   
    22   10   76 1    
    23   11   12 ar   
    24   11   48 1    
    25   12   13 ar   
    26   12   77 1    
    27   13   14 ar   
    28   13   15 1    
    29   14   78 1    
    30   15   16 1    
    31   15   79 1    
    32   15   80 1    
    33   16   17 1    
    34   17   18 1    
    35   17   81 1    
    36   17   82 1    
    37   18   19 1    
    38   18   22 1    
    39   18   83 1    
    40   19   20 am   BACKBONE|DICT|INTERRES
    41   19   21 2    
    42   20   84 1    
    43   20   85 1    
    44   22   23 am   BACKBONE|DICT|INTERRES
    45   22   86 1    
    46   23   24 2    
    47   23   25 1    
    48   25   26 1    
    49   25   27 1    
    50   25   87 1    
    51   26   88 1    
    52   26   89 1    
    53   26   90 1    
    54   27   28 am   BACKBONE|DICT|INTERRES
    55   27   91 1    
    56   28   29 2    
    57   28   30 1    
    58   30   31 1    
    59   30   32 1    
    60   30   92 1    
    61   31   93 1    
    62   31   94 1    
    63   31   95 1    
    64   32   33 am   BACKBONE|DICT|INTERRES
    65   32   96 1    
    66   33   34 2    
    67   33   35 1    
    68   35   36 1    
    69   35   37 1    
    70   35   97 1    
    71   36   98 1    
    72   36   99 1    
    73   36  100 1    
    74   37   38 am   BACKBONE|DICT|INTERRES
    75   37  101 1    
    76   38   39 2    
    77   38   40 1    
    78   40   41 1    
    79   40   42 1    
    80   40  102 1    
    81   41  103 1    
    82   41  104 1    
    83   41  105 1    
    84   42   43 am   BACKBONE|DICT|INTERRES
    85   42  106 1    
    86   43   44 2    
    87   43   45 1    
    88   45   46 1    
    89   45   49 1    
    90   45  107 1    
    91   46   47 1    
    92   46  108 1    
    93   46  109 1    
    94   47   48 1    
    95   48  110 1    
    96   48  111 1    
    97   49   50 am   BACKBONE|DICT|INTERRES
    98   49  112 1    
    99   50   51 2    
   100   50   52 1    
   101   52   53 1    
   102   52   54 1    
   103   52  113 1    
   104   53  114 1    
   105   53  115 1    
   106   53  116 1    
   107   54   55 am   BACKBONE|DICT|INTERRES
   108   54  117 1    
   109   55   56 2    
   110   55   57 1    
   111   57   58 1    
   112   57   59 1    
   113   57  118 1    
   114   58  119 1    
   115   58  120 1    
   116   58  121 1    
   117   59   60 am   BACKBONE|DICT|INTERRES
   118   59  122 1    
   119   60   61 2    
   120   60   62 1    
   121   62   63 1    
   122   62   64 1    
   123   62  123 1    
   124   63  124 1    
   125   63  125 1    
   126   63  126 1    
   127   64   65 am   BACKBONE|DICT|INTERRES
   128   64  127 1    
   129   65   66 2    
@<TRIPOS>SUBSTRUCTURE
     1 UNK         1 GROUP             0       ****    0 ROOT    
