@<TRIPOS>MOLECULE
3R135
127   129    1
SMALL
USER_CHARGES


@<TRIPOS>ATOM
      1 CA        -82.9216   27.0960  -69.8081 C.3       0 UNK        -0.1998 
      2 C         -83.4753   26.8490  -71.2034 C.2       0 UNK         0.4909 
      3 O         -84.4127   26.0669  -71.3625 O.2       0 UNK        -0.5240 
      4 N         -82.9002   27.5101  -72.2164 N.am      1 UNK        -0.4739 
      5 CA        -83.2766   27.3759  -73.6305 C.3       1 UNK         0.0864 
      6 C6        -82.7978   28.5959  -74.4637 C.3       11 UNK        -0.0881 
      7 S7        -80.9816   28.7258  -74.6324 S.3       11 UNK        -0.2682 
      8 C8        -80.5584   29.8920  -73.3062 C.3       11 UNK         0.0289 
      9 C9        -79.1198   29.6871  -72.8620 C.ar      11 UNK        -0.0687 
     10 C10       -78.8093   28.6939  -71.9290 C.ar      11 UNK        -0.0823 
     11 C11       -77.4904   28.4997  -71.5105 C.ar      11 UNK        -0.0830 
     12 C12       -76.4790   29.3093  -72.0372 C.ar      11 UNK        -0.1021 
     13 C13       -76.7737   30.3134  -72.9724 C.ar      11 UNK        -0.0753 
     14 C14       -78.0995   30.4879  -73.3805 C.ar      11 UNK        -0.0933 
     15 C15       -75.7049   31.2126  -73.5968 C.3       11 UNK         0.0166 
     16 S16       -74.0936   31.2158  -72.7408 S.3       11 UNK        -0.2615 
     17 C17       -72.9585   31.6139  -74.1155 C.3       11 UNK        -0.0865 
     18 CA        -72.6894   30.4186  -75.0829 C.3       10 UNK         0.0862 
     19 C         -71.6867   30.7760  -76.2215 C.2       10 UNK         0.5551 
     20 N         -71.0261   29.8103  -76.8483 N.am      10 UNK        -0.7319 
     21 O         -71.5100   31.9452  -76.5571 O.2       10 UNK        -0.5018 
     22 N         -72.3979   29.1541  -74.3872 N.am      10 UNK        -0.4509 
     23 C         -71.3581   28.9344  -73.5722 C.2       10 UNK         0.4899 
     24 O         -70.4637   29.7498  -73.3450 O.2       10 UNK        -0.4839 
     25 CA        -71.3162   27.5645  -72.8869 C.3       9 UNK         0.0222 
     26 CB        -72.3027   27.5137  -71.7069 C.3       9 UNK        -0.1966 
     27 N         -71.6228   26.5016  -73.8449 N.am      9 UNK        -0.4218 
     28 C         -70.6910   25.8570  -74.5582 C.2       9 UNK         0.5020 
     29 O         -69.4802   26.0592  -74.4500 O.2       9 UNK        -0.5274 
     30 CA        -71.1759   24.7873  -75.5466 C.3       8 UNK         0.0270 
     31 CB        -71.4359   23.4615  -74.8127 C.3       8 UNK        -0.1976 
     32 N         -72.3588   25.1656  -76.3257 N.am      8 UNK        -0.4313 
     33 C         -72.3646   26.1053  -77.2828 C.2       8 UNK         0.5041 
     34 O         -71.4304   26.8827  -77.4806 O.2       8 UNK        -0.5577 
     35 CA        -73.5973   26.1624  -78.2018 C.3       7 UNK         0.0284 
     36 CB        -73.8188   24.8278  -78.9355 C.3       7 UNK        -0.1958 
     37 N         -74.8029   26.5226  -77.4642 N.am      7 UNK        -0.4454 
     38 C         -75.1311   27.7696  -77.1046 C.2       7 UNK         0.5089 
     39 O         -74.5288   28.7727  -77.4845 O.2       7 UNK        -0.5125 
     40 CA        -76.3168   27.9278  -76.1329 C.3       6 UNK         0.0408 
     41 CB        -77.6229   28.1735  -76.9003 C.3       6 UNK        -0.1791 
     42 N         -76.4887   26.7916  -75.2229 N.am      6 UNK        -0.4762 
     43 C         -75.5585   26.3649  -74.3551 C.2       6 UNK         0.5007 
     44 O         -74.4483   26.8854  -74.2244 O.2       6 UNK        -0.5032 
     45 CA        -75.8953   25.0865  -73.5666 C.3       5 UNK         0.0783 
     46 C46       -76.8247   25.3655  -72.3609 C.3       11 UNK        -0.0857 
     47 S47       -75.9461   26.2103  -71.0041 S.3       11 UNK        -0.2512 
     48 C48       -77.1721   27.4436  -70.4567 C.3       11 UNK         0.0225 
     49 N         -76.4474   24.0607  -74.4563 N.am      5 UNK        -0.4615 
     50 C         -75.7334   23.3961  -75.3762 C.2       4 UNK         0.5053 
     51 O         -74.5276   23.5576  -75.5503 O.2       4 UNK        -0.5105 
     52 CA        -76.4906   22.4157  -76.2865 C.3       4 UNK         0.0263 
     53 CB        -76.6484   21.0516  -75.5971 C.3       4 UNK        -0.1981 
     54 N         -77.8035   22.9179  -76.6917 N.am      4 UNK        -0.4224 
     55 C         -78.0014   24.0113  -77.4426 C.2       3 UNK         0.4895 
     56 O         -77.0925   24.6732  -77.9419 O.2       3 UNK        -0.5091 
     57 CA        -79.4584   24.4702  -77.6274 C.3       3 UNK         0.0250 
     58 CB        -80.0624   23.8466  -78.8954 C.3       3 UNK        -0.1996 
     59 N         -80.3217   24.1777  -76.4765 N.am      3 UNK        -0.4254 
     60 C         -80.1229   24.6429  -75.2354 C.2       2 UNK         0.5004 
     61 O         -79.1678   25.3538  -74.9112 O.2       2 UNK        -0.5226 
     62 CA        -81.1361   24.2129  -74.1659 C.3       2 UNK         0.0269 
     63 CB        -80.4357   23.4721  -73.0140 C.3       2 UNK        -0.1926 
     64 N         -81.8144   25.3912  -73.6374 N.am      2 UNK        -0.4687 
     65 C         -82.8157   26.0367  -74.2526 C.2       1 UNK         0.5165 
     66 O         -83.3632   25.6231  -75.2763 O.2       1 UNK        -0.5079 
     67 H67       -82.1058   27.8187  -69.8134 H         1 UNK         0.0900 
     68 H68       -82.5474   26.1651  -69.3831 H         1 UNK         0.0900 
     69 H69       -83.7067   27.4770  -69.1555 H         1 UNK         0.0900 
     70 H70       -82.1376   28.1430  -72.0294 H         1 UNK         0.2959 
     71 H71       -84.3682   27.3658  -73.6749 H         1 UNK         0.1079 
     72 H72       -83.2198   28.5424  -75.4691 H         1 UNK         0.0837 
     73 H73       -83.1908   29.5201  -74.0368 H         1 UNK         0.0837 
     74 H74       -80.7131   30.9119  -73.6619 H         1 UNK         0.0685 
     75 H75       -81.2245   29.7616  -72.4533 H         1 UNK         0.0685 
     76 H76       -79.5979   28.0737  -71.5270 H         1 UNK         0.1434 
     77 H77       -75.4630   29.1406  -71.7114 H         1 UNK         0.1329 
     78 H78       -78.3396   31.2498  -74.1096 H         1 UNK         0.1335 
     79 H79       -75.5709   30.9033  -74.6323 H         1 UNK         0.0680 
     80 H80       -76.0681   32.2409  -73.6298 H         1 UNK         0.0680 
     81 H81       -72.0201   31.9625  -73.6811 H         1 UNK         0.1032 
     82 H82       -73.3648   32.4650  -74.6651 H         1 UNK         0.1032 
     83 H83       -73.6248   30.2343  -75.6051 H         1 UNK         0.0461 
     84 H84       -71.2117   28.8331  -76.6582 H         1 UNK         0.3453 
     85 H85       -70.3854   30.0566  -77.5851 H         1 UNK         0.3453 
     86 H86       -73.0928   28.4230  -74.4896 H         1 UNK         0.2984 
     87 H87       -70.3133   27.4182  -72.4800 H         1 UNK         0.0554 
     88 H88       -72.2896   26.5398  -71.2178 H         1 UNK         0.0847 
     89 H89       -73.3275   27.7176  -72.0174 H         1 UNK         0.0847 
     90 H90       -72.0430   28.2592  -70.9544 H         1 UNK         0.0847 
     91 H91       -72.6063   26.3304  -74.0352 H         1 UNK         0.3141 
     92 H92       -70.3652   24.6156  -76.2582 H         1 UNK         0.0743 
     93 H93       -72.2382   23.5559  -74.0799 H         1 UNK         0.0784 
     94 H94       -71.7104   22.6688  -75.5090 H         1 UNK         0.0784 
     95 H95       -70.5446   23.1294  -74.2785 H         1 UNK         0.0784 
     96 H96       -73.1902   24.5934  -76.1803 H         1 UNK         0.3213 
     97 H97       -73.4090   26.9264  -78.9595 H         1 UNK         0.0855 
     98 H98       -74.0743   24.0178  -78.2519 H         1 UNK         0.0814 
     99 H99       -72.9223   24.5275  -79.4796 H         1 UNK         0.0814 
    100 H100      -74.6269   24.9101  -79.6627 H         1 UNK         0.0814 
    101 H101      -75.4147   25.7668  -77.1792 H         1 UNK         0.3105 
    102 H102      -76.1175   28.8029  -75.5138 H         1 UNK         0.0547 
    103 H103      -77.5481   29.0690  -77.5183 H         1 UNK         0.0837 
    104 H104      -77.8634   27.3409  -77.5607 H         1 UNK         0.0837 
    105 H105      -78.4611   28.3178  -76.2191 H         1 UNK         0.0837 
    106 H106      -77.3822   26.3085  -75.2490 H         1 UNK         0.3020 
    107 H107      -74.9519   24.6944  -73.1783 H         1 UNK         0.1245 
    108 H108      -77.2025   24.4252  -71.9570 H         1 UNK         0.0781 
    109 H109      -77.7039   25.9362  -72.6655 H         1 UNK         0.0781 
    110 H110      -76.7864   27.9454  -69.5684 H         1 UNK         0.0836 
    111 H111      -78.0761   26.9204  -70.1411 H         1 UNK         0.0836 
    112 H112      -77.4515   23.9486  -74.4395 H         1 UNK         0.3022 
    113 H113      -75.8934   22.2755  -77.1901 H         1 UNK         0.0747 
    114 H114      -77.1095   20.3216  -76.2626 H         1 UNK         0.0793 
    115 H115      -75.6775   20.6502  -75.3025 H         1 UNK         0.0793 
    116 H116      -77.2598   21.1193  -74.6962 H         1 UNK         0.0793 
    117 H117      -78.6122   22.4296  -76.3363 H         1 UNK         0.3047 
    118 H118      -79.4446   25.5542  -77.7547 H         1 UNK         0.0822 
    119 H119      -81.0601   24.2384  -79.0944 H         1 UNK         0.0807 
    120 H120      -80.1358   22.7610  -78.8182 H         1 UNK         0.0807 
    121 H121      -79.4490   24.0703  -79.7696 H         1 UNK         0.0807 
    122 H122      -81.1385   23.6121  -76.6598 H         1 UNK         0.2946 
    123 H123      -81.8750   23.5407  -74.6084 H         1 UNK         0.1144 
    124 H124      -81.1552   23.1323  -72.2687 H         1 UNK         0.0793 
    125 H125      -79.7060   24.1049  -72.5075 H         1 UNK         0.0793 
    126 H126      -79.9074   22.5903  -73.3788 H         1 UNK         0.0793 
    127 H127      -81.3988   25.8290  -72.8293 H         1 UNK         0.2896 
@<TRIPOS>BOND
     1    1    2 1    
     2    1   67 1    
     3    1   68 1    
     4    1   69 1    
     5    2    3 2    
     6    2    4 am   BACKBONE|DICT|INTERRES
     7    4    5 1    
     8    4   70 1    
     9    5    6 1    
    10    5   65 1    
    11    5   71 1    
    12    6    7 1    
    13    6   72 1    
    14    6   73 1    
    15    7    8 1    
    16    8    9 1    
    17    8   74 1    
    18    8   75 1    
    19    9   10 ar   
    20    9   14 ar   
    21   10   11 ar   
    22   10   76 1    
    23   11   12 ar   
    24   11   48 1    
    25   12   13 ar   
    26   12   77 1    
    27   13   14 ar   
    28   13   15 1    
    29   14   78 1    
    30   15   16 1    
    31   15   79 1    
    32   15   80 1    
    33   16   17 1    
    34   17   18 1    
    35   17   81 1    
    36   17   82 1    
    37   18   19 1    
    38   18   22 1    
    39   18   83 1    
    40   19   20 am   BACKBONE|DICT|INTERRES
    41   19   21 2    
    42   20   84 1    
    43   20   85 1    
    44   22   23 am   BACKBONE|DICT|INTERRES
    45   22   86 1    
    46   23   24 2    
    47   23   25 1    
    48   25   26 1    
    49   25   27 1    
    50   25   87 1    
    51   26   88 1    
    52   26   89 1    
    53   26   90 1    
    54   27   28 am   BACKBONE|DICT|INTERRES
    55   27   91 1    
    56   28   29 2    
    57   28   30 1    
    58   30   31 1    
    59   30   32 1    
    60   30   92 1    
    61   31   93 1    
    62   31   94 1    
    63   31   95 1    
    64   32   33 am   BACKBONE|DICT|INTERRES
    65   32   96 1    
    66   33   34 2    
    67   33   35 1    
    68   35   36 1    
    69   35   37 1    
    70   35   97 1    
    71   36   98 1    
    72   36   99 1    
    73   36  100 1    
    74   37   38 am   BACKBONE|DICT|INTERRES
    75   37  101 1    
    76   38   39 2    
    77   38   40 1    
    78   40   41 1    
    79   40   42 1    
    80   40  102 1    
    81   41  103 1    
    82   41  104 1    
    83   41  105 1    
    84   42   43 am   BACKBONE|DICT|INTERRES
    85   42  106 1    
    86   43   44 2    
    87   43   45 1    
    88   45   46 1    
    89   45   49 1    
    90   45  107 1    
    91   46   47 1    
    92   46  108 1    
    93   46  109 1    
    94   47   48 1    
    95   48  110 1    
    96   48  111 1    
    97   49   50 am   BACKBONE|DICT|INTERRES
    98   49  112 1    
    99   50   51 2    
   100   50   52 1    
   101   52   53 1    
   102   52   54 1    
   103   52  113 1    
   104   53  114 1    
   105   53  115 1    
   106   53  116 1    
   107   54   55 am   BACKBONE|DICT|INTERRES
   108   54  117 1    
   109   55   56 2    
   110   55   57 1    
   111   57   58 1    
   112   57   59 1    
   113   57  118 1    
   114   58  119 1    
   115   58  120 1    
   116   58  121 1    
   117   59   60 am   BACKBONE|DICT|INTERRES
   118   59  122 1    
   119   60   61 2    
   120   60   62 1    
   121   62   63 1    
   122   62   64 1    
   123   62  123 1    
   124   63  124 1    
   125   63  125 1    
   126   63  126 1    
   127   64   65 am   BACKBONE|DICT|INTERRES
   128   64  127 1    
   129   65   66 2    
@<TRIPOS>SUBSTRUCTURE
     1 UNK         1 GROUP             0       ****    0 ROOT    
