@<TRIPOS>MOLECULE
3R135
127   129    1
SMALL
USER_CHARGES


@<TRIPOS>ATOM
      1 CA        -86.3693   29.4586  -70.9271 C.3       0 UNK        -0.1998 
      2 C         -84.9885   29.4838  -71.5654 C.2       0 UNK         0.4909 
      3 O         -84.5157   30.5502  -71.9604 O.2       0 UNK        -0.5240 
      4 N         -84.3341   28.3195  -71.6626 N.am      1 UNK        -0.4739 
      5 CA        -83.0318   28.1469  -72.3100 C.3       1 UNK         0.0864 
      6 C6        -82.3890   26.7967  -71.9039 C.3       11 UNK        -0.0881 
      7 S7        -80.6675   26.6111  -72.4830 S.3       11 UNK        -0.2682 
      8 C8        -79.7396   26.7122  -70.9259 C.3       11 UNK         0.0289 
      9 C9        -78.2552   26.4814  -71.1626 C.ar      11 UNK        -0.0687 
     10 C10       -77.6984   25.2144  -70.9695 C.ar      11 UNK        -0.0823 
     11 C11       -76.3278   25.0072  -71.1475 C.ar      11 UNK        -0.0830 
     12 C12       -75.5179   26.0758  -71.5461 C.ar      11 UNK        -0.1021 
     13 C13       -76.0604   27.3489  -71.7562 C.ar      11 UNK        -0.0753 
     14 C14       -77.4335   27.5423  -71.5526 C.ar      11 UNK        -0.0933 
     15 C15       -75.1206   28.4924  -72.1426 C.3       11 UNK         0.0166 
     16 S16       -75.9159   29.9072  -72.9803 S.3       11 UNK        -0.2615 
     17 C17       -74.4792   30.9934  -73.2724 C.3       11 UNK        -0.0865 
     18 CA        -74.0837   31.0959  -74.7692 C.3       10 UNK         0.0862 
     19 C         -72.9424   32.1412  -74.9523 C.2       10 UNK         0.5551 
     20 N         -71.7187   31.7464  -75.2872 N.am      10 UNK        -0.7319 
     21 O         -73.1766   33.3355  -74.7851 O.2       10 UNK        -0.5018 
     22 N         -73.7966   29.7759  -75.3521 N.am      10 UNK        -0.4509 
     23 C         -73.6774   29.5203  -76.6614 C.2       10 UNK         0.4899 
     24 O         -73.9418   30.3406  -77.5416 O.2       10 UNK        -0.4839 
     25 CA        -73.1694   28.1156  -77.0538 C.3       9 UNK         0.0222 
     26 CB        -72.3605   28.1312  -78.3671 C.3       9 UNK        -0.1966 
     27 N         -72.4093   27.4251  -76.0016 N.am      9 UNK        -0.4218 
     28 C         -71.3000   27.8442  -75.3702 C.2       9 UNK         0.5020 
     29 O         -70.7613   28.9333  -75.5722 O.2       9 UNK        -0.5274 
     30 CA        -70.7114   26.8999  -74.3130 C.3       8 UNK         0.0270 
     31 CB        -71.5477   26.9461  -73.0226 C.3       8 UNK        -0.1976 
     32 N         -70.6649   25.5237  -74.8075 N.am      8 UNK        -0.4313 
     33 C         -69.5535   24.8759  -75.1819 C.2       8 UNK         0.5041 
     34 O         -68.4201   25.3523  -75.1039 O.2       8 UNK        -0.5577 
     35 CA        -69.7247   23.4468  -75.7342 C.3       7 UNK         0.0284 
     36 CB        -69.4879   22.4114  -74.6225 C.3       7 UNK        -0.1958 
     37 N         -71.0379   23.2096  -76.3398 N.am      7 UNK        -0.4454 
     38 C         -71.4689   23.7795  -77.4733 C.2       7 UNK         0.5089 
     39 O         -70.7688   24.4982  -78.1863 O.2       7 UNK        -0.5125 
     40 CA        -72.9358   23.5297  -77.8716 C.3       6 UNK         0.0408 
     41 CB        -73.0150   22.4419  -78.9546 C.3       6 UNK        -0.1791 
     42 N         -73.8439   23.1790  -76.7688 N.am      6 UNK        -0.4762 
     43 C         -74.0920   23.9383  -75.6919 C.2       6 UNK         0.5007 
     44 O         -73.4636   24.9627  -75.4156 O.2       6 UNK        -0.5032 
     45 CA        -75.2205   23.4853  -74.7485 C.3       5 UNK         0.0783 
     46 C46       -74.6321   23.0379  -73.3893 C.3       11 UNK        -0.0857 
     47 S47       -75.9170   22.4693  -72.2261 S.3       11 UNK        -0.2512 
     48 C48       -75.7212   23.6425  -70.8472 C.3       11 UNK         0.0225 
     49 N         -76.2005   24.5632  -74.5989 N.am      5 UNK        -0.4615 
     50 C         -76.9826   25.0276  -75.5798 C.2       4 UNK         0.5053 
     51 O         -76.9981   24.5716  -76.7261 O.2       4 UNK        -0.5105 
     52 CA        -77.8545   26.2399  -75.2222 C.3       4 UNK         0.0263 
     53 CB        -77.0597   27.5367  -75.4433 C.3       4 UNK        -0.1981 
     54 N         -79.0918   26.3106  -76.0007 N.am      4 UNK        -0.4224 
     55 C         -80.0834   25.4099  -75.9959 C.2       3 UNK         0.4895 
     56 O         -80.0729   24.3752  -75.3260 O.2       3 UNK        -0.5091 
     57 CA        -81.3121   25.7591  -76.8610 C.3       3 UNK         0.0250 
     58 CB        -82.3691   24.6389  -76.8733 C.3       3 UNK        -0.1996 
     59 N         -81.9449   26.9957  -76.3969 N.am      3 UNK        -0.4254 
     60 C         -81.5117   28.2388  -76.6381 C.2       2 UNK         0.5004 
     61 O         -80.5520   28.4900  -77.3683 O.2       2 UNK        -0.5226 
     62 CA        -82.2190   29.3905  -75.9017 C.3       2 UNK         0.0269 
     63 CB        -83.5449   29.7754  -76.5880 C.3       2 UNK        -0.1926 
     64 N         -82.3851   29.1498  -74.4584 N.am      2 UNK        -0.4687 
     65 C         -83.1851   28.2676  -73.8407 C.2       1 UNK         0.5165 
     66 O         -83.9819   27.5297  -74.4265 O.2       1 UNK        -0.5079 
     67 H67       -86.6564   28.4544  -70.6155 H         1 UNK         0.0900 
     68 H68       -87.1155   29.8206  -71.6338 H         1 UNK         0.0900 
     69 H69       -86.3889   30.1044  -70.0496 H         1 UNK         0.0900 
     70 H70       -84.7851   27.4711  -71.3506 H         1 UNK         0.2959 
     71 H71       -82.3797   28.9492  -71.9564 H         1 UNK         0.1079 
     72 H72       -82.4093   26.6908  -70.8180 H         1 UNK         0.0837 
     73 H73       -82.9719   25.9590  -72.2923 H         1 UNK         0.0837 
     74 H74       -80.1276   25.9739  -70.2221 H         1 UNK         0.0685 
     75 H75       -79.8992   27.6908  -70.4704 H         1 UNK         0.0685 
     76 H76       -78.3290   24.3920  -70.6595 H         1 UNK         0.1434 
     77 H77       -74.4543   25.9223  -71.6674 H         1 UNK         0.1329 
     78 H78       -77.8749   28.5196  -71.6859 H         1 UNK         0.1335 
     79 H79       -74.3409   28.1091  -72.8005 H         1 UNK         0.0680 
     80 H80       -74.6247   28.8496  -71.2390 H         1 UNK         0.0680 
     81 H81       -74.7397   31.9803  -72.8845 H         1 UNK         0.1032 
     82 H82       -73.6303   30.6560  -72.6746 H         1 UNK         0.1032 
     83 H83       -74.9461   31.4957  -75.3064 H         1 UNK         0.0461 
     84 H84       -71.5022   30.7636  -75.4214 H         1 UNK         0.3453 
     85 H85       -70.9944   32.4368  -75.4031 H         1 UNK         0.3453 
     86 H86       -73.5618   29.0438  -74.7019 H         1 UNK         0.2984 
     87 H87       -74.0615   27.5104  -77.2220 H         1 UNK         0.0554 
     88 H88       -72.0301   27.1289  -78.6407 H         1 UNK         0.0847 
     89 H89       -71.4765   28.7649  -78.2873 H         1 UNK         0.0847 
     90 H90       -72.9597   28.5099  -79.1960 H         1 UNK         0.0847 
     91 H91       -72.7938   26.5178  -75.7357 H         1 UNK         0.3141 
     92 H92       -69.7064   27.2555  -74.0759 H         1 UNK         0.0743 
     93 H93       -71.6486   27.9682  -72.6545 H         1 UNK         0.0784 
     94 H94       -72.5504   26.5465  -73.1756 H         1 UNK         0.0784 
     95 H95       -71.0774   26.3629  -72.2307 H         1 UNK         0.0784 
     96 H96       -71.5595   25.0674  -74.9534 H         1 UNK         0.3213 
     97 H97       -68.9655   23.3015  -76.5060 H         1 UNK         0.0855 
     98 H98       -70.2269   22.4973  -73.8248 H         1 UNK         0.0814 
     99 H99       -68.5041   22.5444  -74.1700 H         1 UNK         0.0814 
    100 H100      -69.5277   21.3938  -75.0115 H         1 UNK         0.0814 
    101 H101      -71.6794   22.6166  -75.8339 H         1 UNK         0.3105 
    102 H102      -73.3064   24.4622  -78.3028 H         1 UNK         0.0547 
    103 H103      -72.6956   21.4704  -78.5754 H         1 UNK         0.0837 
    104 H104      -74.0291   22.3369  -79.3405 H         1 UNK         0.0837 
    105 H105      -72.3739   22.6866  -79.8029 H         1 UNK         0.0837 
    106 H106      -74.4016   22.3480  -76.9090 H         1 UNK         0.3020 
    107 H107      -75.7360   22.6336  -75.1979 H         1 UNK         0.1245 
    108 H108      -74.0521   23.8426  -72.9340 H         1 UNK         0.0781 
    109 H109      -73.9338   22.2111  -73.5334 H         1 UNK         0.0781 
    110 H110      -74.6653   23.7353  -70.5878 H         1 UNK         0.0836 
    111 H111      -76.2057   23.2215  -69.9648 H         1 UNK         0.0836 
    112 H112      -76.2451   24.9941  -73.6859 H         1 UNK         0.3022 
    113 H113      -78.1301   26.1681  -74.1684 H         1 UNK         0.0747 
    114 H114      -76.1224   27.5220  -74.8860 H         1 UNK         0.0793 
    115 H115      -77.6220   28.4078  -75.1066 H         1 UNK         0.0793 
    116 H116      -76.8085   27.6829  -76.4946 H         1 UNK         0.0793 
    117 H117      -79.2195   27.1333  -76.5795 H         1 UNK         0.3047 
    118 H118      -80.9620   25.9007  -77.8858 H         1 UNK         0.0822 
    119 H119      -81.9415   23.7017  -77.2320 H         1 UNK         0.0807 
    120 H120      -83.2019   24.8870  -77.5316 H         1 UNK         0.0807 
    121 H121      -82.7732   24.4548  -75.8768 H         1 UNK         0.0807 
    122 H122      -82.7242   26.8984  -75.7524 H         1 UNK         0.2946 
    123 H123      -81.5563   30.2546  -75.9789 H         1 UNK         0.1144 
    124 H124      -83.3709   30.0740  -77.6226 H         1 UNK         0.0793 
    125 H125      -84.0221   30.6160  -76.0842 H         1 UNK         0.0793 
    126 H126      -84.2559   28.9493  -76.6088 H         1 UNK         0.0793 
    127 H127      -81.7551   29.6837  -73.8750 H         1 UNK         0.2896 
@<TRIPOS>BOND
     1    1    2 1    
     2    1   67 1    
     3    1   68 1    
     4    1   69 1    
     5    2    3 2    
     6    2    4 am   BACKBONE|DICT|INTERRES
     7    4    5 1    
     8    4   70 1    
     9    5    6 1    
    10    5   65 1    
    11    5   71 1    
    12    6    7 1    
    13    6   72 1    
    14    6   73 1    
    15    7    8 1    
    16    8    9 1    
    17    8   74 1    
    18    8   75 1    
    19    9   10 ar   
    20    9   14 ar   
    21   10   11 ar   
    22   10   76 1    
    23   11   12 ar   
    24   11   48 1    
    25   12   13 ar   
    26   12   77 1    
    27   13   14 ar   
    28   13   15 1    
    29   14   78 1    
    30   15   16 1    
    31   15   79 1    
    32   15   80 1    
    33   16   17 1    
    34   17   18 1    
    35   17   81 1    
    36   17   82 1    
    37   18   19 1    
    38   18   22 1    
    39   18   83 1    
    40   19   20 am   BACKBONE|DICT|INTERRES
    41   19   21 2    
    42   20   84 1    
    43   20   85 1    
    44   22   23 am   BACKBONE|DICT|INTERRES
    45   22   86 1    
    46   23   24 2    
    47   23   25 1    
    48   25   26 1    
    49   25   27 1    
    50   25   87 1    
    51   26   88 1    
    52   26   89 1    
    53   26   90 1    
    54   27   28 am   BACKBONE|DICT|INTERRES
    55   27   91 1    
    56   28   29 2    
    57   28   30 1    
    58   30   31 1    
    59   30   32 1    
    60   30   92 1    
    61   31   93 1    
    62   31   94 1    
    63   31   95 1    
    64   32   33 am   BACKBONE|DICT|INTERRES
    65   32   96 1    
    66   33   34 2    
    67   33   35 1    
    68   35   36 1    
    69   35   37 1    
    70   35   97 1    
    71   36   98 1    
    72   36   99 1    
    73   36  100 1    
    74   37   38 am   BACKBONE|DICT|INTERRES
    75   37  101 1    
    76   38   39 2    
    77   38   40 1    
    78   40   41 1    
    79   40   42 1    
    80   40  102 1    
    81   41  103 1    
    82   41  104 1    
    83   41  105 1    
    84   42   43 am   BACKBONE|DICT|INTERRES
    85   42  106 1    
    86   43   44 2    
    87   43   45 1    
    88   45   46 1    
    89   45   49 1    
    90   45  107 1    
    91   46   47 1    
    92   46  108 1    
    93   46  109 1    
    94   47   48 1    
    95   48  110 1    
    96   48  111 1    
    97   49   50 am   BACKBONE|DICT|INTERRES
    98   49  112 1    
    99   50   51 2    
   100   50   52 1    
   101   52   53 1    
   102   52   54 1    
   103   52  113 1    
   104   53  114 1    
   105   53  115 1    
   106   53  116 1    
   107   54   55 am   BACKBONE|DICT|INTERRES
   108   54  117 1    
   109   55   56 2    
   110   55   57 1    
   111   57   58 1    
   112   57   59 1    
   113   57  118 1    
   114   58  119 1    
   115   58  120 1    
   116   58  121 1    
   117   59   60 am   BACKBONE|DICT|INTERRES
   118   59  122 1    
   119   60   61 2    
   120   60   62 1    
   121   62   63 1    
   122   62   64 1    
   123   62  123 1    
   124   63  124 1    
   125   63  125 1    
   126   63  126 1    
   127   64   65 am   BACKBONE|DICT|INTERRES
   128   64  127 1    
   129   65   66 2    
@<TRIPOS>SUBSTRUCTURE
     1 UNK         1 GROUP             0       ****    0 ROOT    
