@<TRIPOS>MOLECULE
3R135
127   129    1
SMALL
USER_CHARGES


@<TRIPOS>ATOM
      1 CA        -76.2811   25.0749  -72.1438 C.3       0 UNK        -0.1998 
      2 C         -77.7896   25.2477  -72.2051 C.2       0 UNK         0.4909 
      3 O         -78.3629   25.2621  -73.2960 O.2       0 UNK        -0.5240 
      4 N         -78.4306   25.3585  -71.0317 N.am      1 UNK        -0.4739 
      5 CA        -79.8634   25.6396  -70.8317 C.3       1 UNK         0.0864 
      6 C6        -80.2315   27.1041  -71.1958 C.3       11 UNK        -0.0881 
      7 S7        -79.4072   28.3127  -70.1048 S.3       11 UNK        -0.2682 
      8 C8        -80.2054   29.8645  -70.6285 C.3       11 UNK         0.0289 
      9 C9        -79.4932   30.4762  -71.8248 C.ar      11 UNK        -0.0687 
     10 C10       -79.7861   30.0423  -73.1203 C.ar      11 UNK        -0.0823 
     11 C11       -79.0889   30.5568  -74.2170 C.ar      11 UNK        -0.0830 
     12 C12       -78.1222   31.5466  -74.0143 C.ar      11 UNK        -0.1021 
     13 C13       -77.8399   32.0093  -72.7253 C.ar      11 UNK        -0.0753 
     14 C14       -78.5277   31.4693  -71.6347 C.ar      11 UNK        -0.0933 
     15 C15       -76.8000   33.0993  -72.5081 C.3       11 UNK         0.0166 
     16 S16       -75.2890   32.4678  -71.7119 S.3       11 UNK        -0.2615 
     17 C17       -74.5543   31.4542  -73.0414 C.3       11 UNK        -0.0865 
     18 CA        -73.8970   30.1519  -72.5053 C.3       10 UNK         0.0862 
     19 C         -74.9164   28.9866  -72.3232 C.2       10 UNK         0.5551 
     20 N         -75.9127   29.1661  -71.4690 N.am      10 UNK        -0.7319 
     21 O         -74.8267   27.9365  -72.9542 O.2       10 UNK        -0.5018 
     22 N         -72.7331   29.7883  -73.3271 N.am      10 UNK        -0.4509 
     23 C         -71.7681   28.9400  -72.9571 C.2       10 UNK         0.4899 
     24 O         -71.6875   28.4191  -71.8427 O.2       10 UNK        -0.4839 
     25 CA        -70.7084   28.6157  -74.0221 C.3       9 UNK         0.0222 
     26 CB        -69.2827   28.7797  -73.4669 C.3       9 UNK        -0.1966 
     27 N         -70.8867   27.2502  -74.5127 N.am      9 UNK        -0.4218 
     28 C         -71.8740   26.8625  -75.3287 C.2       9 UNK         0.5020 
     29 O         -72.7153   27.6309  -75.8073 O.2       9 UNK        -0.5274 
     30 CA        -71.9479   25.3567  -75.6306 C.3       8 UNK         0.0270 
     31 CB        -72.8214   24.6495  -74.5807 C.3       8 UNK        -0.1976 
     32 N         -72.5233   25.1399  -76.9558 N.am      8 UNK        -0.4313 
     33 C         -71.8491   25.2378  -78.1091 C.2       8 UNK         0.5041 
     34 O         -70.6222   25.3180  -78.1855 O.2       8 UNK        -0.5577 
     35 CA        -72.6987   25.3362  -79.3862 C.3       7 UNK         0.0284 
     36 CB        -73.4037   24.0100  -79.7183 C.3       7 UNK        -0.1958 
     37 N         -73.6749   26.4163  -79.2229 N.am      7 UNK        -0.4454 
     38 C         -73.3895   27.7080  -79.4445 C.2       7 UNK         0.5089 
     39 O         -72.3916   28.0876  -80.0587 O.2       7 UNK        -0.5125 
     40 CA        -74.3189   28.7697  -78.8316 C.3       6 UNK         0.0408 
     41 CB        -75.3143   29.3410  -79.8614 C.3       6 UNK        -0.1791 
     42 N         -74.9499   28.3253  -77.5809 N.am      6 UNK        -0.4762 
     43 C         -76.0501   27.5817  -77.4052 C.2       6 UNK         0.5007 
     44 O         -76.7829   27.2014  -78.3207 O.2       6 UNK        -0.5032 
     45 CA        -76.3505   27.1685  -75.9476 C.3       5 UNK         0.0783 
     46 C46       -77.2365   28.2066  -75.2162 C.3       11 UNK        -0.0857 
     47 S47       -78.9821   28.2474  -75.7611 S.3       11 UNK        -0.2512 
     48 C48       -79.3641   30.0247  -75.6178 C.3       11 UNK         0.0225 
     49 N         -76.9066   25.8196  -75.8396 N.am      5 UNK        -0.4615 
     50 C         -76.3532   24.6980  -76.3156 C.2       4 UNK         0.5053 
     51 O         -75.2663   24.6721  -76.8922 O.2       4 UNK        -0.5105 
     52 CA        -77.1175   23.3815  -76.1064 C.3       4 UNK         0.0263 
     53 CB        -76.4041   22.5008  -75.0682 C.3       4 UNK        -0.1981 
     54 N         -78.4977   23.6106  -75.6715 N.am      4 UNK        -0.4224 
     55 C         -79.5713   23.5427  -76.4693 C.2       3 UNK         0.4895 
     56 O         -79.5147   23.2431  -77.6637 O.2       3 UNK        -0.5091 
     57 CA        -80.9366   23.8747  -75.8299 C.3       3 UNK         0.0250 
     58 CB        -82.1246   23.2824  -76.6178 C.3       3 UNK        -0.1996 
     59 N         -81.0346   23.5179  -74.4084 N.am      3 UNK        -0.4254 
     60 C         -80.8884   22.3101  -73.8425 C.2       2 UNK         0.5004 
     61 O         -80.6471   21.2828  -74.4789 O.2       2 UNK        -0.5226 
     62 CA        -81.0227   22.2441  -72.3030 C.3       2 UNK         0.0269 
     63 CB        -80.5071   20.9131  -71.7231 C.3       2 UNK        -0.1926 
     64 N         -80.3395   23.3488  -71.6179 N.am      2 UNK        -0.4687 
     65 C         -80.7920   24.6072  -71.5168 C.2       1 UNK         0.5165 
     66 O         -81.8810   24.9578  -71.9755 O.2       1 UNK        -0.5079 
     67 H67       -76.0218   24.0355  -71.9477 H         1 UNK         0.0900 
     68 H68       -75.8470   25.6943  -71.3592 H         1 UNK         0.0900 
     69 H69       -75.8262   25.3723  -73.0879 H         1 UNK         0.0900 
     70 H70       -77.8887   25.3130  -70.1797 H         1 UNK         0.2959 
     71 H71       -80.0524   25.5111  -69.7646 H         1 UNK         0.1079 
     72 H72       -79.9678   27.3103  -72.2338 H         1 UNK         0.0837 
     73 H73       -81.3065   27.2713  -71.1072 H         1 UNK         0.0837 
     74 H74       -80.1912   30.5627  -69.7902 H         1 UNK         0.0685 
     75 H75       -81.2576   29.6913  -70.8592 H         1 UNK         0.0685 
     76 H76       -80.5351   29.2789  -73.2772 H         1 UNK         0.1434 
     77 H77       -77.5845   31.9539  -74.8596 H         1 UNK         0.1329 
     78 H78       -78.2998   31.8149  -70.6356 H         1 UNK         0.1335 
     79 H79       -76.5362   33.5826  -73.4502 H         1 UNK         0.0680 
     80 H80       -77.2288   33.8785  -71.8763 H         1 UNK         0.0680 
     81 H81       -73.8076   32.0871  -73.5240 H         1 UNK         0.1032 
     82 H82       -75.2899   31.2297  -73.8152 H         1 UNK         0.1032 
     83 H83       -73.4969   30.3594  -71.5105 H         1 UNK         0.0461 
     84 H84       -76.0218   30.0507  -70.9979 H         1 UNK         0.3453 
     85 H85       -76.6029   28.4434  -71.3484 H         1 UNK         0.3453 
     86 H86       -72.7458   30.1060  -74.2849 H         1 UNK         0.2984 
     87 H87       -70.8200   29.3055  -74.8618 H         1 UNK         0.0554 
     88 H88       -68.5332   28.6009  -74.2381 H         1 UNK         0.0847 
     89 H89       -69.0844   28.0947  -72.6414 H         1 UNK         0.0847 
     90 H90       -69.1258   29.7924  -73.0930 H         1 UNK         0.0847 
     91 H91       -70.2670   26.5499  -74.1313 H         1 UNK         0.3141 
     92 H92       -70.9431   24.9297  -75.6021 H         1 UNK         0.0743 
     93 H93       -72.3808   24.7298  -73.5862 H         1 UNK         0.0784 
     94 H94       -72.9324   23.5882  -74.8036 H         1 UNK         0.0784 
     95 H95       -73.8189   25.0871  -74.5276 H         1 UNK         0.0784 
     96 H96       -73.5391   25.0568  -76.9880 H         1 UNK         0.3213 
     97 H97       -72.0312   25.5699  -80.2188 H         1 UNK         0.0855 
     98 H98       -72.6742   23.2124  -79.8643 H         1 UNK         0.0814 
     99 H99       -73.9815   24.0916  -80.6390 H         1 UNK         0.0814 
    100 H100      -74.0809   23.6861  -78.9293 H         1 UNK         0.0814 
    101 H101      -74.5208   26.1963  -78.7133 H         1 UNK         0.3105 
    102 H102      -73.6723   29.5952  -78.5298 H         1 UNK         0.0547 
    103 H103      -75.9262   28.5630  -80.3183 H         1 UNK         0.0837 
    104 H104      -74.7820   29.8407  -80.6715 H         1 UNK         0.0837 
    105 H105      -75.9806   30.0752  -79.4090 H         1 UNK         0.0837 
    106 H106      -74.3552   28.4598  -76.7674 H         1 UNK         0.3020 
    107 H107      -75.3931   27.1297  -75.4232 H         1 UNK         0.1245 
    108 H108      -76.7957   29.2012  -75.3024 H         1 UNK         0.0781 
    109 H109      -77.2461   27.9849  -74.1479 H         1 UNK         0.0781 
    110 H110      -80.4149   30.1840  -75.8632 H         1 UNK         0.0836 
    111 H111      -78.7869   30.5716  -76.3650 H         1 UNK         0.0836 
    112 H112      -77.7816   25.7525  -75.3362 H         1 UNK         0.3022 
    113 H113      -77.1041   22.8505  -77.0604 H         1 UNK         0.0747 
    114 H114      -76.8983   21.5344  -74.9664 H         1 UNK         0.0793 
    115 H115      -75.3710   22.3079  -75.3610 H         1 UNK         0.0793 
    116 H116      -76.3835   22.9694  -74.0858 H         1 UNK         0.0793 
    117 H117      -78.6229   23.9350  -74.7160 H         1 UNK         0.3047 
    118 H118      -81.0239   24.9616  -75.8718 H         1 UNK         0.0822 
    119 H119      -83.0773   23.5528  -76.1625 H         1 UNK         0.0807 
    120 H120      -82.0729   22.1942  -76.6676 H         1 UNK         0.0807 
    121 H121      -82.1414   23.6545  -77.6430 H         1 UNK         0.0807 
    122 H122      -81.2383   24.2861  -73.7774 H         1 UNK         0.2946 
    123 H123      -82.0912   22.3084  -72.0839 H         1 UNK         0.1144 
    124 H124      -81.0454   20.0644  -72.1473 H         1 UNK         0.0793 
    125 H125      -80.6448   20.8703  -70.6425 H         1 UNK         0.0793 
    126 H126      -79.4470   20.7662  -71.9338 H         1 UNK         0.0793 
    127 H127      -79.4173   23.1529  -71.2556 H         1 UNK         0.2896 
@<TRIPOS>BOND
     1    1    2 1    
     2    1   67 1    
     3    1   68 1    
     4    1   69 1    
     5    2    3 2    
     6    2    4 am   BACKBONE|DICT|INTERRES
     7    4    5 1    
     8    4   70 1    
     9    5    6 1    
    10    5   65 1    
    11    5   71 1    
    12    6    7 1    
    13    6   72 1    
    14    6   73 1    
    15    7    8 1    
    16    8    9 1    
    17    8   74 1    
    18    8   75 1    
    19    9   10 ar   
    20    9   14 ar   
    21   10   11 ar   
    22   10   76 1    
    23   11   12 ar   
    24   11   48 1    
    25   12   13 ar   
    26   12   77 1    
    27   13   14 ar   
    28   13   15 1    
    29   14   78 1    
    30   15   16 1    
    31   15   79 1    
    32   15   80 1    
    33   16   17 1    
    34   17   18 1    
    35   17   81 1    
    36   17   82 1    
    37   18   19 1    
    38   18   22 1    
    39   18   83 1    
    40   19   20 am   BACKBONE|DICT|INTERRES
    41   19   21 2    
    42   20   84 1    
    43   20   85 1    
    44   22   23 am   BACKBONE|DICT|INTERRES
    45   22   86 1    
    46   23   24 2    
    47   23   25 1    
    48   25   26 1    
    49   25   27 1    
    50   25   87 1    
    51   26   88 1    
    52   26   89 1    
    53   26   90 1    
    54   27   28 am   BACKBONE|DICT|INTERRES
    55   27   91 1    
    56   28   29 2    
    57   28   30 1    
    58   30   31 1    
    59   30   32 1    
    60   30   92 1    
    61   31   93 1    
    62   31   94 1    
    63   31   95 1    
    64   32   33 am   BACKBONE|DICT|INTERRES
    65   32   96 1    
    66   33   34 2    
    67   33   35 1    
    68   35   36 1    
    69   35   37 1    
    70   35   97 1    
    71   36   98 1    
    72   36   99 1    
    73   36  100 1    
    74   37   38 am   BACKBONE|DICT|INTERRES
    75   37  101 1    
    76   38   39 2    
    77   38   40 1    
    78   40   41 1    
    79   40   42 1    
    80   40  102 1    
    81   41  103 1    
    82   41  104 1    
    83   41  105 1    
    84   42   43 am   BACKBONE|DICT|INTERRES
    85   42  106 1    
    86   43   44 2    
    87   43   45 1    
    88   45   46 1    
    89   45   49 1    
    90   45  107 1    
    91   46   47 1    
    92   46  108 1    
    93   46  109 1    
    94   47   48 1    
    95   48  110 1    
    96   48  111 1    
    97   49   50 am   BACKBONE|DICT|INTERRES
    98   49  112 1    
    99   50   51 2    
   100   50   52 1    
   101   52   53 1    
   102   52   54 1    
   103   52  113 1    
   104   53  114 1    
   105   53  115 1    
   106   53  116 1    
   107   54   55 am   BACKBONE|DICT|INTERRES
   108   54  117 1    
   109   55   56 2    
   110   55   57 1    
   111   57   58 1    
   112   57   59 1    
   113   57  118 1    
   114   58  119 1    
   115   58  120 1    
   116   58  121 1    
   117   59   60 am   BACKBONE|DICT|INTERRES
   118   59  122 1    
   119   60   61 2    
   120   60   62 1    
   121   62   63 1    
   122   62   64 1    
   123   62  123 1    
   124   63  124 1    
   125   63  125 1    
   126   63  126 1    
   127   64   65 am   BACKBONE|DICT|INTERRES
   128   64  127 1    
   129   65   66 2    
@<TRIPOS>SUBSTRUCTURE
     1 UNK         1 GROUP             0       ****    0 ROOT    
