@<TRIPOS>MOLECULE
3R135
127   129    1
SMALL
USER_CHARGES


@<TRIPOS>ATOM
      1 CA        -83.7455   23.8280  -72.7270 C.3       0 UNK        -0.1998 
      2 C         -83.0752   24.9698  -73.4754 C.2       0 UNK         0.4909 
      3 O         -83.1753   25.0436  -74.7005 O.2       0 UNK        -0.5240 
      4 N         -82.3934   25.8657  -72.7494 N.am      1 UNK        -0.4739 
      5 CA        -81.6617   27.0037  -73.3157 C.3       1 UNK         0.0864 
      6 C6        -81.3158   28.0495  -72.2284 C.3       11 UNK        -0.0881 
      7 S7        -81.0599   29.7141  -72.9364 S.3       11 UNK        -0.2682 
      8 C8        -79.7198   30.3774  -71.8987 C.3       11 UNK         0.0289 
      9 C9        -78.3838   29.6939  -72.1557 C.ar      11 UNK        -0.0687 
     10 C10       -77.8999   28.7376  -71.2575 C.ar      11 UNK        -0.0823 
     11 C11       -76.6567   28.1328  -71.4616 C.ar      11 UNK        -0.0830 
     12 C12       -75.8854   28.5148  -72.5628 C.ar      11 UNK        -0.1021 
     13 C13       -76.3603   29.4576  -73.4768 C.ar      11 UNK        -0.0753 
     14 C14       -77.6150   30.0408  -73.2717 C.ar      11 UNK        -0.0933 
     15 C15       -75.5148   29.8258  -74.6882 C.3       11 UNK         0.0166 
     16 S16       -75.0180   31.5775  -74.7051 S.3       11 UNK        -0.2615 
     17 C17       -74.0538   31.7500  -73.1627 C.3       11 UNK        -0.0865 
     18 CA        -72.5161   31.6849  -73.4026 C.3       10 UNK         0.0862 
     19 C         -71.6881   32.3283  -72.2445 C.2       10 UNK         0.5551 
     20 N         -70.4682   31.8770  -71.9775 N.am      10 UNK        -0.7319 
     21 O         -72.1360   33.2744  -71.6008 O.2       10 UNK        -0.5018 
     22 N         -72.0568   30.3435  -73.8164 N.am      10 UNK        -0.4509 
     23 C         -72.0703   29.2353  -73.0570 C.2       10 UNK         0.4899 
     24 O         -72.5006   29.2049  -71.9041 O.2       10 UNK        -0.4839 
     25 CA        -71.4900   27.9488  -73.6711 C.3       9 UNK         0.0222 
     26 CB        -72.2539   26.6819  -73.2376 C.3       9 UNK        -0.1966 
     27 N         -71.4357   28.0201  -75.1310 N.am      9 UNK        -0.4218 
     28 C         -70.4990   27.4700  -75.9105 C.2       9 UNK         0.5020 
     29 O         -69.5398   26.8314  -75.4727 O.2       9 UNK        -0.5274 
     30 CA        -70.6666   27.6602  -77.4349 C.3       8 UNK         0.0270 
     31 CB        -69.7572   26.7218  -78.2512 C.3       8 UNK        -0.1976 
     32 N         -72.0518   27.4824  -77.8842 N.am      8 UNK        -0.4313 
     33 C         -73.0412   28.3753  -77.7476 C.2       8 UNK         0.5041 
     34 O         -72.8921   29.4720  -77.2083 O.2       8 UNK        -0.5577 
     35 CA        -74.4356   27.9456  -78.2320 C.3       7 UNK         0.0284 
     36 CB        -74.6176   28.2658  -79.7238 C.3       7 UNK        -0.1958 
     37 N         -74.6992   26.5223  -77.9942 N.am      7 UNK        -0.4454 
     38 C         -74.8656   25.9864  -76.7775 C.2       7 UNK         0.5089 
     39 O         -74.8464   26.6478  -75.7384 O.2       7 UNK        -0.5125 
     40 CA        -75.0869   24.4644  -76.7349 C.3       6 UNK         0.0408 
     41 CB        -73.7553   23.6914  -76.8340 C.3       6 UNK        -0.1791 
     42 N         -75.9012   24.0828  -75.5721 N.am      6 UNK        -0.4762 
     43 C         -75.5272   23.9315  -74.2908 C.2       6 UNK         0.5007 
     44 O         -74.3564   23.8520  -73.9176 O.2       6 UNK        -0.5032 
     45 CA        -76.6558   23.8405  -73.2357 C.3       5 UNK         0.0783 
     46 C46       -76.8503   25.1801  -72.4830 C.3       11 UNK        -0.0857 
     47 S47       -75.5108   25.5699  -71.3065 S.3       11 UNK        -0.2512 
     48 C48       -76.1574   27.0691  -70.4877 C.3       11 UNK         0.0225 
     49 N         -77.9365   23.4058  -73.8011 N.am      5 UNK        -0.4615 
     50 C         -78.2373   22.1503  -74.1535 C.2       4 UNK         0.5053 
     51 O         -77.4420   21.2129  -74.0928 O.2       4 UNK        -0.5105 
     52 CA        -79.6703   21.8965  -74.6422 C.3       4 UNK         0.0263 
     53 CB        -80.6361   21.8174  -73.4485 C.3       4 UNK        -0.1981 
     54 N         -80.1176   22.9477  -75.5584 N.am      4 UNK        -0.4224 
     55 C         -80.1533   22.8288  -76.8941 C.2       3 UNK         0.4895 
     56 O         -79.8526   21.7994  -77.5003 O.2       3 UNK        -0.5091 
     57 CA        -80.5937   24.0644  -77.7032 C.3       3 UNK         0.0250 
     58 CB        -82.0955   23.9964  -78.0225 C.3       3 UNK        -0.1996 
     59 N         -80.2919   25.3305  -77.0298 N.am      3 UNK        -0.4254 
     60 C         -79.0498   25.8044  -76.8529 C.2       2 UNK         0.5004 
     61 O         -78.0542   25.2654  -77.3281 O.2       2 UNK        -0.5226 
     62 CA        -78.8692   27.0598  -75.9788 C.3       2 UNK         0.0269 
     63 CB        -78.6039   28.2928  -76.8564 C.3       2 UNK        -0.1926 
     64 N         -80.0008   27.3360  -75.0881 N.am      2 UNK        -0.4687 
     65 C         -80.4156   26.5350  -74.0980 C.2       1 UNK         0.5165 
     66 O         -79.8742   25.4590  -73.8242 O.2       1 UNK        -0.5079 
     67 H67       -84.8149   24.0170  -72.6373 H         1 UNK         0.0900 
     68 H68       -83.6116   22.8915  -73.2670 H         1 UNK         0.0900 
     69 H69       -83.3331   23.7030  -71.7259 H         1 UNK         0.0900 
     70 H70       -82.3145   25.7408  -71.7503 H         1 UNK         0.2959 
     71 H71       -82.3395   27.4727  -74.0333 H         1 UNK         0.1079 
     72 H72       -80.4535   27.7311  -71.6421 H         1 UNK         0.0837 
     73 H73       -82.1398   28.1389  -71.5186 H         1 UNK         0.0837 
     74 H74       -80.0028   30.2938  -70.8482 H         1 UNK         0.0685 
     75 H75       -79.6196   31.4450  -72.0998 H         1 UNK         0.0685 
     76 H76       -78.4928   28.4658  -70.3950 H         1 UNK         0.1434 
     77 H77       -74.9191   28.0576  -72.7185 H         1 UNK         0.1329 
     78 H78       -77.9853   30.7761  -73.9729 H         1 UNK         0.1335 
     79 H79       -74.6195   29.2055  -74.7429 H         1 UNK         0.0680 
     80 H80       -76.0826   29.6131  -75.5939 H         1 UNK         0.0680 
     81 H81       -74.3682   31.0144  -72.4223 H         1 UNK         0.1032 
     82 H82       -74.3385   32.7170  -72.7450 H         1 UNK         0.1032 
     83 H83       -72.3014   32.3306  -74.2549 H         1 UNK         0.0461 
     84 H84       -69.9340   32.3046  -71.2375 H         1 UNK         0.3453 
     85 H85       -70.0800   31.1118  -72.5047 H         1 UNK         0.3453 
     86 H86       -71.6585   30.2935  -74.7427 H         1 UNK         0.2984 
     87 H87       -70.4719   27.8770  -73.2836 H         1 UNK         0.0554 
     88 H88       -71.7722   25.7792  -73.6131 H         1 UNK         0.0847 
     89 H89       -73.2790   26.6821  -73.6072 H         1 UNK         0.0847 
     90 H90       -72.2992   26.5925  -72.1516 H         1 UNK         0.0847 
     91 H91       -72.1844   28.5294  -75.5933 H         1 UNK         0.3141 
     92 H92       -70.3640   28.6860  -77.6562 H         1 UNK         0.0743 
     93 H93       -69.9832   25.6724  -78.0573 H         1 UNK         0.0784 
     94 H94       -69.8636   26.8972  -79.3219 H         1 UNK         0.0784 
     95 H95       -68.7064   26.8806  -78.0048 H         1 UNK         0.0784 
     96 H96       -72.2775   26.5895  -78.2971 H         1 UNK         0.3213 
     97 H97       -75.1703   28.5251  -77.6691 H         1 UNK         0.0855 
     98 H98       -73.9237   27.7025  -80.3490 H         1 UNK         0.0814 
     99 H99       -74.4437   29.3254  -79.9174 H         1 UNK         0.0814 
    100 H100      -75.6309   28.0401  -80.0568 H         1 UNK         0.0814 
    101 H101      -74.7618   25.9235  -78.8055 H         1 UNK         0.3105 
    102 H102      -75.6831   24.1911  -77.6063 H         1 UNK         0.0547 
    103 H103      -73.9026   22.6215  -76.6875 H         1 UNK         0.0837 
    104 H104      -73.0258   24.0366  -76.1005 H         1 UNK         0.0837 
    105 H105      -73.3025   23.8239  -77.8169 H         1 UNK         0.0837 
    106 H106      -76.8958   24.1365  -75.7505 H         1 UNK         0.3020 
    107 H107      -76.3473   23.0845  -72.5097 H         1 UNK         0.1245 
    108 H108      -77.7775   25.1536  -71.9076 H         1 UNK         0.0781 
    109 H109      -76.9647   25.9990  -73.1954 H         1 UNK         0.0781 
    110 H110      -75.3687   27.5002  -69.8698 H         1 UNK         0.0836 
    111 H111      -76.9545   26.7682  -69.8061 H         1 UNK         0.0836 
    112 H112      -78.6623   24.1187  -73.8441 H         1 UNK         0.3022 
    113 H113      -79.6821   20.9265  -75.1440 H         1 UNK         0.0747 
    114 H114      -81.6395   21.5460  -73.7754 H         1 UNK         0.0793 
    115 H115      -80.3137   21.0586  -72.7340 H         1 UNK         0.0793 
    116 H116      -80.7005   22.7653  -72.9124 H         1 UNK         0.0793 
    117 H117      -80.3585   23.8401  -75.1433 H         1 UNK         0.3047 
    118 H118      -80.0465   24.0468  -78.6485 H         1 UNK         0.0822 
    119 H119      -82.4084   24.8349  -78.6448 H         1 UNK         0.0807 
    120 H120      -82.7031   24.0037  -77.1173 H         1 UNK         0.0807 
    121 H121      -82.3362   23.0824  -78.5672 H         1 UNK         0.0807 
    122 H122      -81.0665   25.8251  -76.6105 H         1 UNK         0.2946 
    123 H123      -77.9886   26.8917  -75.3537 H         1 UNK         0.1144 
    124 H124      -78.4154   29.1785  -76.2498 H         1 UNK         0.0793 
    125 H125      -79.4461   28.5090  -77.5146 H         1 UNK         0.0793 
    126 H126      -77.7266   28.1395  -77.4867 H         1 UNK         0.0793 
    127 H127      -80.4811   28.2139  -75.2296 H         1 UNK         0.2896 
@<TRIPOS>BOND
     1    1    2 1    
     2    1   67 1    
     3    1   68 1    
     4    1   69 1    
     5    2    3 2    
     6    2    4 am   BACKBONE|DICT|INTERRES
     7    4    5 1    
     8    4   70 1    
     9    5    6 1    
    10    5   65 1    
    11    5   71 1    
    12    6    7 1    
    13    6   72 1    
    14    6   73 1    
    15    7    8 1    
    16    8    9 1    
    17    8   74 1    
    18    8   75 1    
    19    9   10 ar   
    20    9   14 ar   
    21   10   11 ar   
    22   10   76 1    
    23   11   12 ar   
    24   11   48 1    
    25   12   13 ar   
    26   12   77 1    
    27   13   14 ar   
    28   13   15 1    
    29   14   78 1    
    30   15   16 1    
    31   15   79 1    
    32   15   80 1    
    33   16   17 1    
    34   17   18 1    
    35   17   81 1    
    36   17   82 1    
    37   18   19 1    
    38   18   22 1    
    39   18   83 1    
    40   19   20 am   BACKBONE|DICT|INTERRES
    41   19   21 2    
    42   20   84 1    
    43   20   85 1    
    44   22   23 am   BACKBONE|DICT|INTERRES
    45   22   86 1    
    46   23   24 2    
    47   23   25 1    
    48   25   26 1    
    49   25   27 1    
    50   25   87 1    
    51   26   88 1    
    52   26   89 1    
    53   26   90 1    
    54   27   28 am   BACKBONE|DICT|INTERRES
    55   27   91 1    
    56   28   29 2    
    57   28   30 1    
    58   30   31 1    
    59   30   32 1    
    60   30   92 1    
    61   31   93 1    
    62   31   94 1    
    63   31   95 1    
    64   32   33 am   BACKBONE|DICT|INTERRES
    65   32   96 1    
    66   33   34 2    
    67   33   35 1    
    68   35   36 1    
    69   35   37 1    
    70   35   97 1    
    71   36   98 1    
    72   36   99 1    
    73   36  100 1    
    74   37   38 am   BACKBONE|DICT|INTERRES
    75   37  101 1    
    76   38   39 2    
    77   38   40 1    
    78   40   41 1    
    79   40   42 1    
    80   40  102 1    
    81   41  103 1    
    82   41  104 1    
    83   41  105 1    
    84   42   43 am   BACKBONE|DICT|INTERRES
    85   42  106 1    
    86   43   44 2    
    87   43   45 1    
    88   45   46 1    
    89   45   49 1    
    90   45  107 1    
    91   46   47 1    
    92   46  108 1    
    93   46  109 1    
    94   47   48 1    
    95   48  110 1    
    96   48  111 1    
    97   49   50 am   BACKBONE|DICT|INTERRES
    98   49  112 1    
    99   50   51 2    
   100   50   52 1    
   101   52   53 1    
   102   52   54 1    
   103   52  113 1    
   104   53  114 1    
   105   53  115 1    
   106   53  116 1    
   107   54   55 am   BACKBONE|DICT|INTERRES
   108   54  117 1    
   109   55   56 2    
   110   55   57 1    
   111   57   58 1    
   112   57   59 1    
   113   57  118 1    
   114   58  119 1    
   115   58  120 1    
   116   58  121 1    
   117   59   60 am   BACKBONE|DICT|INTERRES
   118   59  122 1    
   119   60   61 2    
   120   60   62 1    
   121   62   63 1    
   122   62   64 1    
   123   62  123 1    
   124   63  124 1    
   125   63  125 1    
   126   63  126 1    
   127   64   65 am   BACKBONE|DICT|INTERRES
   128   64  127 1    
   129   65   66 2    
@<TRIPOS>SUBSTRUCTURE
     1 UNK         1 GROUP             0       ****    0 ROOT    
