@<TRIPOS>MOLECULE
3R135
127   129    1
SMALL
USER_CHARGES


@<TRIPOS>ATOM
      1 CA        -75.1674   23.8772  -69.9795 C.3       0 UNK        -0.1998 
      2 C         -76.6861   23.8752  -70.0675 C.2       0 UNK         0.4909 
      3 O         -77.3316   22.9801  -69.5205 O.2       0 UNK        -0.5240 
      4 N         -77.2611   24.8791  -70.7415 N.am      1 UNK        -0.4739 
      5 CA        -78.7000   25.0058  -70.9881 C.3       1 UNK         0.0864 
      6 C6        -79.0376   26.4256  -71.5046 C.3       11 UNK        -0.0881 
      7 S7        -80.8303   26.7567  -71.6369 S.3       11 UNK        -0.2682 
      8 C8        -80.8836   28.5634  -71.4161 C.3       11 UNK         0.0289 
      9 C9        -80.0593   29.2836  -72.4729 C.ar      11 UNK        -0.0687 
     10 C10       -80.5376   29.4028  -73.7803 C.ar      11 UNK        -0.0823 
     11 C11       -79.7704   30.0388  -74.7613 C.ar      11 UNK        -0.0830 
     12 C12       -78.5236   30.5751  -74.4231 C.ar      11 UNK        -0.1021 
     13 C13       -78.0315   30.4491  -73.1207 C.ar      11 UNK        -0.0753 
     14 C14       -78.8074   29.8127  -72.1484 C.ar      11 UNK        -0.0933 
     15 C15       -76.6569   30.9829  -72.7563 C.3       11 UNK         0.0166 
     16 S16       -75.4165   29.6509  -72.7736 S.3       11 UNK        -0.2615 
     17 C17       -73.9796   30.5249  -72.0669 C.3       11 UNK        -0.0865 
     18 CA        -72.9593   30.9647  -73.1461 C.3       10 UNK         0.0862 
     19 C         -71.9120   31.9357  -72.5332 C.2       10 UNK         0.5551 
     20 N         -72.1479   33.2375  -72.6213 N.am      10 UNK        -0.7319 
     21 O         -70.9179   31.5190  -71.9411 O.2       10 UNK        -0.5018 
     22 N         -72.3325   29.8030  -73.7918 N.am      10 UNK        -0.4509 
     23 C         -71.5214   29.8516  -74.8530 C.2       10 UNK         0.4899 
     24 O         -71.2970   30.8794  -75.4935 O.2       10 UNK        -0.4839 
     25 CA        -70.8361   28.5440  -75.2894 C.3       9 UNK         0.0222 
     26 CB        -69.5097   28.3364  -74.5324 C.3       9 UNK        -0.1966 
     27 N         -71.6843   27.3444  -75.2386 N.am      9 UNK        -0.4218 
     28 C         -72.1920   26.6983  -74.1753 C.2       9 UNK         0.5020 
     29 O         -72.0086   27.0608  -73.0122 O.2       9 UNK        -0.5274 
     30 CA        -73.0591   25.4498  -74.4446 C.3       8 UNK         0.0270 
     31 CB        -74.3201   25.4337  -73.5595 C.3       8 UNK        -0.1976 
     32 N         -73.4563   25.3650  -75.8530 N.am      8 UNK        -0.4313 
     33 C         -72.8900   24.5696  -76.7732 C.2       8 UNK         0.5041 
     34 O         -72.0608   23.7006  -76.5026 O.2       8 UNK        -0.5577 
     35 CA        -73.2612   24.8042  -78.2526 C.3       7 UNK         0.0284 
     36 CB        -74.1227   23.6618  -78.8141 C.3       7 UNK        -0.1958 
     37 N         -73.9209   26.0930  -78.4919 N.am      7 UNK        -0.4454 
     38 C         -73.2781   27.2708  -78.4660 C.2       7 UNK         0.5089 
     39 O         -72.0638   27.3715  -78.2934 O.2       7 UNK        -0.5125 
     40 CA        -74.1205   28.5548  -78.5850 C.3       6 UNK         0.0408 
     41 CB        -74.1578   29.0367  -80.0432 C.3       6 UNK        -0.1791 
     42 N         -75.4912   28.4266  -78.0801 N.am      6 UNK        -0.4762 
     43 C         -75.8283   28.0824  -76.8278 C.2       6 UNK         0.5007 
     44 O         -75.0008   27.8285  -75.9536 O.2       6 UNK        -0.5032 
     45 CA        -77.3289   27.9317  -76.5025 C.3       5 UNK         0.0783 
     46 C46       -78.2653   28.6393  -77.5239 C.3       11 UNK        -0.0857 
     47 S47       -80.0320   28.5489  -77.0715 S.3       11 UNK        -0.2512 
     48 C48       -80.2876   30.1213  -76.1886 C.3       11 UNK         0.0225 
     49 N         -77.6799   26.5253  -76.2796 N.am      5 UNK        -0.4615 
     50 C         -77.4768   25.4910  -77.1079 C.2       4 UNK         0.5053 
     51 O         -76.8841   25.5708  -78.1849 O.2       4 UNK        -0.5105 
     52 CA        -78.0424   24.1344  -76.6540 C.3       4 UNK         0.0263 
     53 CB        -77.0018   23.3631  -75.8273 C.3       4 UNK        -0.1981 
     54 N         -79.2707   24.2784  -75.8656 N.am      4 UNK        -0.4224 
     55 C         -80.4624   24.6285  -76.3782 C.2       3 UNK         0.4895 
     56 O         -80.6525   24.8009  -77.5834 O.2       3 UNK        -0.5091 
     57 CA        -81.6327   24.8388  -75.3909 C.3       3 UNK         0.0250 
     58 CB        -83.0099   24.5534  -76.0273 C.3       3 UNK        -0.1996 
     59 N         -81.4805   24.1150  -74.1228 N.am      3 UNK        -0.4254 
     60 C         -81.3801   22.7876  -73.9426 C.2       2 UNK         0.5004 
     61 O         -81.5166   21.9601  -74.8450 O.2       2 UNK        -0.5226 
     62 CA        -81.0380   22.3104  -72.5132 C.3       2 UNK         0.0269 
     63 CB        -80.2453   20.9855  -72.5145 C.3       2 UNK        -0.1926 
     64 N         -80.3416   23.3192  -71.6958 N.am      2 UNK        -0.4687 
     65 C         -79.1752   23.9224  -71.9775 C.2       1 UNK         0.5165 
     66 O         -78.5232   23.7129  -73.0028 O.2       1 UNK        -0.5079 
     67 H67       -74.8475   23.6249  -68.9687 H         1 UNK         0.0900 
     68 H68       -74.7490   24.8521  -70.2284 H         1 UNK         0.0900 
     69 H69       -74.7508   23.1387  -70.6641 H         1 UNK         0.0900 
     70 H70       -76.6777   25.5688  -71.1921 H         1 UNK         0.2959 
     71 H71       -79.2101   24.8558  -70.0337 H         1 UNK         0.1079 
     72 H72       -78.5753   26.6093  -72.4769 H         1 UNK         0.0837 
     73 H73       -78.6073   27.1617  -70.8236 H         1 UNK         0.0837 
     74 H74       -81.9206   28.8975  -71.4722 H         1 UNK         0.0685 
     75 H75       -80.5348   28.8148  -70.4132 H         1 UNK         0.0685 
     76 H76       -81.4986   28.9792  -74.0392 H         1 UNK         0.1434 
     77 H77       -77.9236   31.0637  -75.1787 H         1 UNK         0.1329 
     78 H78       -78.4242   29.7127  -71.1421 H         1 UNK         0.1335 
     79 H79       -76.3527   31.7699  -73.4483 H         1 UNK         0.0680 
     80 H80       -76.6974   31.4371  -71.7650 H         1 UNK         0.0680 
     81 H81       -74.3345   31.3852  -71.4959 H         1 UNK         0.1032 
     82 H82       -73.5007   29.8671  -71.3389 H         1 UNK         0.1032 
     83 H83       -73.5012   31.5072  -73.9238 H         1 UNK         0.0461 
     84 H84       -71.4889   33.8834  -72.2153 H         1 UNK         0.3453 
     85 H85       -72.9638   33.5893  -73.0977 H         1 UNK         0.3453 
     86 H86       -72.4272   28.9104  -73.3171 H         1 UNK         0.2984 
     87 H87       -70.5855   28.6683  -76.3440 H         1 UNK         0.0554 
     88 H88       -68.8445   29.1889  -74.6762 H         1 UNK         0.0847 
     89 H89       -68.9831   27.4509  -74.8882 H         1 UNK         0.0847 
     90 H90       -69.6636   28.2280  -73.4584 H         1 UNK         0.0847 
     91 H91       -71.9279   26.9848  -76.1534 H         1 UNK         0.3141 
     92 H92       -72.4506   24.5855  -74.1715 H         1 UNK         0.0743 
     93 H93       -74.9904   26.2627  -73.7891 H         1 UNK         0.0784 
     94 H94       -74.8739   24.5040  -73.6813 H         1 UNK         0.0784 
     95 H95       -74.0599   25.5101  -72.5037 H         1 UNK         0.0784 
     96 H96       -74.1065   26.0864  -76.1538 H         1 UNK         0.3213 
     97 H97       -72.3210   24.8004  -78.8090 H         1 UNK         0.0855 
     98 H98       -73.6562   22.6925  -78.6324 H         1 UNK         0.0814 
     99 H99       -74.2509   23.7603  -79.8921 H         1 UNK         0.0814 
    100 H100      -75.1133   23.6359  -78.3661 H         1 UNK         0.0814 
    101 H101      -74.9322   26.0807  -78.5936 H         1 UNK         0.3105 
    102 H102      -73.6254   29.3216  -77.9852 H         1 UNK         0.0547 
    103 H103      -73.1485   29.1667  -80.4368 H         1 UNK         0.0837 
    104 H104      -74.6704   28.3248  -80.6914 H         1 UNK         0.0837 
    105 H105      -74.6628   29.9987  -80.1322 H         1 UNK         0.0837 
    106 H106      -76.2306   28.5697  -78.7527 H         1 UNK         0.3020 
    107 H107      -77.4543   28.4168  -75.5355 H         1 UNK         0.1245 
    108 H108      -78.1709   28.1818  -78.5103 H         1 UNK         0.0781 
    109 H109      -77.9862   29.6879  -77.6427 H         1 UNK         0.0781 
    110 H110      -81.3554   30.3449  -76.1734 H         1 UNK         0.0836 
    111 H111      -79.8161   30.9414  -76.7321 H         1 UNK         0.0836 
    112 H112      -78.1629   26.3370  -75.4145 H         1 UNK         0.3022 
    113 H113      -78.2718   23.5510  -77.5482 H         1 UNK         0.0747 
    114 H114      -76.0886   23.1861  -76.3929 H         1 UNK         0.0793 
    115 H115      -76.7226   23.9114  -74.9285 H         1 UNK         0.0793 
    116 H116      -77.3840   22.3903  -75.5173 H         1 UNK         0.0793 
    117 H117      -79.1871   24.1118  -74.8670 H         1 UNK         0.3047 
    118 H118      -81.6072   25.8989  -75.1325 H         1 UNK         0.0822 
    119 H119      -83.0867   23.5256  -76.3830 H         1 UNK         0.0807 
    120 H120      -83.1892   25.2065  -76.8823 H         1 UNK         0.0807 
    121 H121      -83.8186   24.7249  -75.3170 H         1 UNK         0.0807 
    122 H122      -81.3543   24.6986  -73.3063 H         1 UNK         0.2946 
    123 H123      -81.9964   22.1228  -72.0259 H         1 UNK         0.1144 
    124 H124      -80.0197   20.6569  -71.4999 H         1 UNK         0.0793 
    125 H125      -79.3019   21.0798  -73.0537 H         1 UNK         0.0793 
    126 H126      -80.8140   20.1867  -72.9921 H         1 UNK         0.0793 
    127 H127      -80.8214   23.5903  -70.8478 H         1 UNK         0.2896 
@<TRIPOS>BOND
     1    1    2 1    
     2    1   67 1    
     3    1   68 1    
     4    1   69 1    
     5    2    3 2    
     6    2    4 am   BACKBONE|DICT|INTERRES
     7    4    5 1    
     8    4   70 1    
     9    5    6 1    
    10    5   65 1    
    11    5   71 1    
    12    6    7 1    
    13    6   72 1    
    14    6   73 1    
    15    7    8 1    
    16    8    9 1    
    17    8   74 1    
    18    8   75 1    
    19    9   10 ar   
    20    9   14 ar   
    21   10   11 ar   
    22   10   76 1    
    23   11   12 ar   
    24   11   48 1    
    25   12   13 ar   
    26   12   77 1    
    27   13   14 ar   
    28   13   15 1    
    29   14   78 1    
    30   15   16 1    
    31   15   79 1    
    32   15   80 1    
    33   16   17 1    
    34   17   18 1    
    35   17   81 1    
    36   17   82 1    
    37   18   19 1    
    38   18   22 1    
    39   18   83 1    
    40   19   20 am   BACKBONE|DICT|INTERRES
    41   19   21 2    
    42   20   84 1    
    43   20   85 1    
    44   22   23 am   BACKBONE|DICT|INTERRES
    45   22   86 1    
    46   23   24 2    
    47   23   25 1    
    48   25   26 1    
    49   25   27 1    
    50   25   87 1    
    51   26   88 1    
    52   26   89 1    
    53   26   90 1    
    54   27   28 am   BACKBONE|DICT|INTERRES
    55   27   91 1    
    56   28   29 2    
    57   28   30 1    
    58   30   31 1    
    59   30   32 1    
    60   30   92 1    
    61   31   93 1    
    62   31   94 1    
    63   31   95 1    
    64   32   33 am   BACKBONE|DICT|INTERRES
    65   32   96 1    
    66   33   34 2    
    67   33   35 1    
    68   35   36 1    
    69   35   37 1    
    70   35   97 1    
    71   36   98 1    
    72   36   99 1    
    73   36  100 1    
    74   37   38 am   BACKBONE|DICT|INTERRES
    75   37  101 1    
    76   38   39 2    
    77   38   40 1    
    78   40   41 1    
    79   40   42 1    
    80   40  102 1    
    81   41  103 1    
    82   41  104 1    
    83   41  105 1    
    84   42   43 am   BACKBONE|DICT|INTERRES
    85   42  106 1    
    86   43   44 2    
    87   43   45 1    
    88   45   46 1    
    89   45   49 1    
    90   45  107 1    
    91   46   47 1    
    92   46  108 1    
    93   46  109 1    
    94   47   48 1    
    95   48  110 1    
    96   48  111 1    
    97   49   50 am   BACKBONE|DICT|INTERRES
    98   49  112 1    
    99   50   51 2    
   100   50   52 1    
   101   52   53 1    
   102   52   54 1    
   103   52  113 1    
   104   53  114 1    
   105   53  115 1    
   106   53  116 1    
   107   54   55 am   BACKBONE|DICT|INTERRES
   108   54  117 1    
   109   55   56 2    
   110   55   57 1    
   111   57   58 1    
   112   57   59 1    
   113   57  118 1    
   114   58  119 1    
   115   58  120 1    
   116   58  121 1    
   117   59   60 am   BACKBONE|DICT|INTERRES
   118   59  122 1    
   119   60   61 2    
   120   60   62 1    
   121   62   63 1    
   122   62   64 1    
   123   62  123 1    
   124   63  124 1    
   125   63  125 1    
   126   63  126 1    
   127   64   65 am   BACKBONE|DICT|INTERRES
   128   64  127 1    
   129   65   66 2    
@<TRIPOS>SUBSTRUCTURE
     1 UNK         1 GROUP             0       ****    0 ROOT    
