@<TRIPOS>MOLECULE
3R135
127   129    1
SMALL
USER_CHARGES


@<TRIPOS>ATOM
      1 CA        -83.1319   25.8944  -68.7126 C.3       0 UNK        -0.1998 
      2 C         -82.4997   26.3753  -70.0100 C.2       0 UNK         0.4909 
      3 O         -83.0115   27.3075  -70.6306 O.2       0 UNK        -0.5240 
      4 N         -81.3892   25.7486  -70.4205 N.am      1 UNK        -0.4739 
      5 CA        -80.6502   26.0653  -71.6494 C.3       1 UNK         0.0864 
      6 C6        -79.2734   25.3581  -71.6819 C.3       11 UNK        -0.0881 
      7 S7        -78.0744   26.1496  -70.5600 S.3       11 UNK        -0.2682 
      8 C8        -76.8509   26.8107  -71.7386 C.3       11 UNK         0.0289 
      9 C9        -77.2613   28.1551  -72.3282 C.ar      11 UNK        -0.0687 
     10 C10       -78.2274   28.2266  -73.3374 C.ar      11 UNK        -0.0823 
     11 C11       -78.5578   29.4501  -73.9306 C.ar      11 UNK        -0.0830 
     12 C12       -77.9215   30.6126  -73.4885 C.ar      11 UNK        -0.1021 
     13 C13       -76.9659   30.5614  -72.4703 C.ar      11 UNK        -0.0753 
     14 C14       -76.6414   29.3306  -71.8916 C.ar      11 UNK        -0.0933 
     15 C15       -76.2999   31.8450  -71.9984 C.3       11 UNK         0.0166 
     16 S16       -74.8280   32.2396  -72.9931 S.3       11 UNK        -0.2615 
     17 C17       -73.5258   31.4153  -72.0206 C.3       11 UNK        -0.0865 
     18 CA        -72.1655   31.3763  -72.7614 C.3       10 UNK         0.0862 
     19 C         -71.0417   30.9103  -71.7962 C.2       10 UNK         0.5551 
     20 N         -70.1316   31.7980  -71.4201 N.am      10 UNK        -0.7319 
     21 O         -71.0250   29.7664  -71.3473 O.2       10 UNK        -0.5018 
     22 N         -72.2372   30.5330  -73.9626 N.am      10 UNK        -0.4509 
     23 C         -71.2803   30.4297  -74.8945 C.2       10 UNK         0.4899 
     24 O         -70.2678   31.1318  -74.9177 O.2       10 UNK        -0.4839 
     25 CA        -71.5031   29.3557  -75.9804 C.3       9 UNK         0.0222 
     26 CB        -70.2375   29.0602  -76.8125 C.3       9 UNK        -0.1966 
     27 N         -72.0733   28.1127  -75.4449 N.am      9 UNK        -0.4218 
     28 C         -71.5517   27.3279  -74.4869 C.2       9 UNK         0.5020 
     29 O         -70.4624   27.5189  -73.9453 O.2       9 UNK        -0.5274 
     30 CA        -72.3961   26.1172  -74.0610 C.3       8 UNK         0.0270 
     31 CB        -73.6205   26.5617  -73.2427 C.3       8 UNK        -0.1976 
     32 N         -72.8331   25.3146  -75.2022 N.am      8 UNK        -0.4313 
     33 C         -72.0225   24.5860  -75.9826 C.2       8 UNK         0.5041 
     34 O         -70.8131   24.4540  -75.7905 O.2       8 UNK        -0.5577 
     35 CA        -72.6715   23.8960  -77.1918 C.3       7 UNK         0.0284 
     36 CB        -73.3885   22.6013  -76.7727 C.3       7 UNK        -0.1958 
     37 N         -73.6090   24.7872  -77.8768 N.am      7 UNK        -0.4454 
     38 C         -73.2421   25.7906  -78.6865 C.2       7 UNK         0.5089 
     39 O         -72.0758   26.0279  -79.0007 O.2       7 UNK        -0.5125 
     40 CA        -74.3646   26.6824  -79.2460 C.3       6 UNK         0.0408 
     41 CB        -74.8035   26.1852  -80.6323 C.3       6 UNK        -0.1791 
     42 N         -75.5354   26.7626  -78.3683 N.am      6 UNK        -0.4762 
     43 C         -75.5647   27.4198  -77.1998 C.2       6 UNK         0.5007 
     44 O         -74.6018   28.0215  -76.7241 O.2       6 UNK        -0.5032 
     45 CA        -76.8825   27.3438  -76.4079 C.3       5 UNK         0.0783 
     46 C46       -77.9096   28.3596  -76.9744 C.3       11 UNK        -0.0857 
     47 S47       -79.5733   28.1899  -76.2448 S.3       11 UNK        -0.2512 
     48 C48       -79.6173   29.5474  -75.0266 C.3       11 UNK         0.0225 
     49 N         -77.4191   25.9781  -76.3306 N.am      5 UNK        -0.4615 
     50 C         -76.7801   24.9065  -75.8465 C.2       4 UNK         0.5053 
     51 O         -75.6203   24.9517  -75.4375 O.2       4 UNK        -0.5105 
     52 CA        -77.5262   23.5566  -75.8088 C.3       4 UNK         0.0263 
     53 CB        -77.3487   22.8650  -74.4454 C.3       4 UNK        -0.1981 
     54 N         -78.9586   23.6095  -76.1253 N.am      4 UNK        -0.4224 
     55 C         -79.5007   23.8156  -77.3309 C.2       3 UNK         0.4895 
     56 O         -78.8346   24.0967  -78.3274 O.2       3 UNK        -0.5091 
     57 CA        -81.0334   23.6970  -77.4714 C.3       3 UNK         0.0250 
     58 CB        -81.4189   22.2869  -77.9596 C.3       3 UNK        -0.1996 
     59 N         -81.8401   24.0825  -76.2987 N.am      3 UNK        -0.4254 
     60 C         -81.8892   23.5209  -75.0817 C.2       2 UNK         0.5004 
     61 O         -81.1622   22.5948  -74.7167 O.2       2 UNK        -0.5226 
     62 CA        -82.9050   24.1081  -74.0859 C.3       2 UNK         0.0269 
     63 CB        -83.9254   23.0447  -73.6471 C.3       2 UNK        -0.1926 
     64 N         -82.2181   24.6364  -72.9067 N.am      2 UNK        -0.4687 
     65 C         -81.4417   25.7284  -72.9278 C.2       1 UNK         0.5165 
     66 O         -81.3235   26.4525  -73.9148 O.2       1 UNK        -0.5079 
     67 H67       -83.1703   26.7088  -67.9897 H         1 UNK         0.0900 
     68 H68       -82.5732   25.0718  -68.2665 H         1 UNK         0.0900 
     69 H69       -84.1502   25.5526  -68.8957 H         1 UNK         0.0900 
     70 H70       -81.0005   25.0079  -69.8542 H         1 UNK         0.2959 
     71 H71       -80.4879   27.1459  -71.6688 H         1 UNK         0.1079 
     72 H72       -78.8564   25.3430  -72.6894 H         1 UNK         0.0837 
     73 H73       -79.3730   24.3080  -71.4007 H         1 UNK         0.0837 
     74 H74       -75.8999   26.9113  -71.2136 H         1 UNK         0.0685 
     75 H75       -76.6706   26.0922  -72.5398 H         1 UNK         0.0685 
     76 H76       -78.7118   27.3270  -73.6852 H         1 UNK         0.1434 
     77 H77       -78.1717   31.5659  -73.9342 H         1 UNK         0.1329 
     78 H78       -75.8995   29.2866  -71.1064 H         1 UNK         0.1335 
     79 H79       -77.0053   32.6736  -72.0777 H         1 UNK         0.0680 
     80 H80       -76.0356   31.7763  -70.9420 H         1 UNK         0.0680 
     81 H81       -73.8467   30.4049  -71.7619 H         1 UNK         0.1032 
     82 H82       -73.4310   31.9566  -71.0768 H         1 UNK         0.1032 
     83 H83       -71.9335   32.3910  -73.0923 H         1 UNK         0.0461 
     84 H84       -69.4063   31.5160  -70.7793 H         1 UNK         0.3453 
     85 H85       -70.1426   32.7392  -71.7818 H         1 UNK         0.3453 
     86 H86       -73.0355   29.9200  -74.0255 H         1 UNK         0.2984 
     87 H87       -72.2537   29.7629  -76.6594 H         1 UNK         0.0554 
     88 H88       -70.4357   28.3123  -77.5808 H         1 UNK         0.0847 
     89 H89       -69.4207   28.6932  -76.1903 H         1 UNK         0.0847 
     90 H90       -69.8828   29.9586  -77.3188 H         1 UNK         0.0847 
     91 H91       -72.9881   27.8729  -75.8241 H         1 UNK         0.3141 
     92 H92       -71.7751   25.4845  -73.4233 H         1 UNK         0.0743 
     93 H93       -73.3213   27.1744  -72.3910 H         1 UNK         0.0784 
     94 H94       -74.3206   27.1479  -73.8396 H         1 UNK         0.0784 
     95 H95       -74.1598   25.6997  -72.8499 H         1 UNK         0.0784 
     96 H96       -73.8340   25.2996  -75.3938 H         1 UNK         0.3213 
     97 H97       -71.8757   23.6277  -77.8906 H         1 UNK         0.0855 
     98 H98       -72.6903   21.9093  -76.2997 H         1 UNK         0.0814 
     99 H99       -73.8173   22.0886  -77.6338 H         1 UNK         0.0814 
    100 H100      -74.1910   22.7876  -76.0590 H         1 UNK         0.0814 
    101 H101      -74.5864   24.6944  -77.6426 H         1 UNK         0.3105 
    102 H102      -73.9571   27.6894  -79.3601 H         1 UNK         0.0547 
    103 H103      -73.9549   26.1387  -81.3163 H         1 UNK         0.0837 
    104 H104      -75.2387   25.1861  -80.5856 H         1 UNK         0.0837 
    105 H105      -75.5402   26.8528  -81.0792 H         1 UNK         0.0837 
    106 H106      -76.3697   26.2768  -78.6683 H         1 UNK         0.3020 
    107 H107      -76.6333   27.6404  -75.3887 H         1 UNK         0.1245 
    108 H108      -78.0248   28.2299  -78.0524 H         1 UNK         0.0781 
    109 H109      -77.5537   29.3817  -76.8304 H         1 UNK         0.0781 
    110 H110      -80.6000   29.5512  -74.5533 H         1 UNK         0.0836 
    111 H111      -79.5303   30.4934  -75.5634 H         1 UNK         0.0836 
    112 H112      -78.3674   25.8604  -76.6571 H         1 UNK         0.3022 
    113 H113      -77.0490   22.9273  -76.5626 H         1 UNK         0.0747 
    114 H114      -77.8100   21.8772  -74.4393 H         1 UNK         0.0793 
    115 H115      -76.2937   22.7254  -74.2048 H         1 UNK         0.0793 
    116 H116      -77.7924   23.4454  -73.6373 H         1 UNK         0.0793 
    117 H117      -79.6010   23.3286  -75.3880 H         1 UNK         0.3047 
    118 H118      -81.3151   24.4001  -78.2571 H         1 UNK         0.0822 
    119 H119      -81.1668   21.5191  -77.2273 H         1 UNK         0.0807 
    120 H120      -80.8950   22.0368  -78.8833 H         1 UNK         0.0807 
    121 H121      -82.4870   22.2163  -78.1654 H         1 UNK         0.0807 
    122 H122      -82.4363   24.8840  -76.4553 H         1 UNK         0.2946 
    123 H123      -83.4495   24.9255  -74.5648 H         1 UNK         0.1144 
    124 H124      -84.6700   23.4644  -72.9705 H         1 UNK         0.0793 
    125 H125      -83.4452   22.2066  -73.1400 H         1 UNK         0.0793 
    126 H126      -84.4608   22.6408  -74.5075 H         1 UNK         0.0793 
    127 H127      -82.2522   24.0804  -72.0648 H         1 UNK         0.2896 
@<TRIPOS>BOND
     1    1    2 1    
     2    1   67 1    
     3    1   68 1    
     4    1   69 1    
     5    2    3 2    
     6    2    4 am   BACKBONE|DICT|INTERRES
     7    4    5 1    
     8    4   70 1    
     9    5    6 1    
    10    5   65 1    
    11    5   71 1    
    12    6    7 1    
    13    6   72 1    
    14    6   73 1    
    15    7    8 1    
    16    8    9 1    
    17    8   74 1    
    18    8   75 1    
    19    9   10 ar   
    20    9   14 ar   
    21   10   11 ar   
    22   10   76 1    
    23   11   12 ar   
    24   11   48 1    
    25   12   13 ar   
    26   12   77 1    
    27   13   14 ar   
    28   13   15 1    
    29   14   78 1    
    30   15   16 1    
    31   15   79 1    
    32   15   80 1    
    33   16   17 1    
    34   17   18 1    
    35   17   81 1    
    36   17   82 1    
    37   18   19 1    
    38   18   22 1    
    39   18   83 1    
    40   19   20 am   BACKBONE|DICT|INTERRES
    41   19   21 2    
    42   20   84 1    
    43   20   85 1    
    44   22   23 am   BACKBONE|DICT|INTERRES
    45   22   86 1    
    46   23   24 2    
    47   23   25 1    
    48   25   26 1    
    49   25   27 1    
    50   25   87 1    
    51   26   88 1    
    52   26   89 1    
    53   26   90 1    
    54   27   28 am   BACKBONE|DICT|INTERRES
    55   27   91 1    
    56   28   29 2    
    57   28   30 1    
    58   30   31 1    
    59   30   32 1    
    60   30   92 1    
    61   31   93 1    
    62   31   94 1    
    63   31   95 1    
    64   32   33 am   BACKBONE|DICT|INTERRES
    65   32   96 1    
    66   33   34 2    
    67   33   35 1    
    68   35   36 1    
    69   35   37 1    
    70   35   97 1    
    71   36   98 1    
    72   36   99 1    
    73   36  100 1    
    74   37   38 am   BACKBONE|DICT|INTERRES
    75   37  101 1    
    76   38   39 2    
    77   38   40 1    
    78   40   41 1    
    79   40   42 1    
    80   40  102 1    
    81   41  103 1    
    82   41  104 1    
    83   41  105 1    
    84   42   43 am   BACKBONE|DICT|INTERRES
    85   42  106 1    
    86   43   44 2    
    87   43   45 1    
    88   45   46 1    
    89   45   49 1    
    90   45  107 1    
    91   46   47 1    
    92   46  108 1    
    93   46  109 1    
    94   47   48 1    
    95   48  110 1    
    96   48  111 1    
    97   49   50 am   BACKBONE|DICT|INTERRES
    98   49  112 1    
    99   50   51 2    
   100   50   52 1    
   101   52   53 1    
   102   52   54 1    
   103   52  113 1    
   104   53  114 1    
   105   53  115 1    
   106   53  116 1    
   107   54   55 am   BACKBONE|DICT|INTERRES
   108   54  117 1    
   109   55   56 2    
   110   55   57 1    
   111   57   58 1    
   112   57   59 1    
   113   57  118 1    
   114   58  119 1    
   115   58  120 1    
   116   58  121 1    
   117   59   60 am   BACKBONE|DICT|INTERRES
   118   59  122 1    
   119   60   61 2    
   120   60   62 1    
   121   62   63 1    
   122   62   64 1    
   123   62  123 1    
   124   63  124 1    
   125   63  125 1    
   126   63  126 1    
   127   64   65 am   BACKBONE|DICT|INTERRES
   128   64  127 1    
   129   65   66 2    
@<TRIPOS>SUBSTRUCTURE
     1 UNK         1 GROUP             0       ****    0 ROOT    
