@<TRIPOS>MOLECULE
3R135
127   129    1
SMALL
USER_CHARGES


@<TRIPOS>ATOM
      1 CA        -85.2553   29.8988  -74.4007 C.3       0 UNK        -0.1998 
      2 C         -84.0810   28.9391  -74.2780 C.2       0 UNK         0.4909 
      3 O         -84.2031   27.9127  -73.6088 O.2       0 UNK        -0.5240 
      4 N         -82.9513   29.2723  -74.9180 N.am      1 UNK        -0.4739 
      5 CA        -81.7033   28.4994  -74.9631 C.3       1 UNK         0.0864 
      6 C6        -80.9864   28.3772  -73.5901 C.3       11 UNK        -0.0881 
      7 S7        -80.4714   29.9870  -72.9002 S.3       11 UNK        -0.2682 
      8 C8        -78.7072   30.0679  -73.3816 C.3       11 UNK         0.0289 
      9 C9        -77.7371   29.1832  -72.5902 C.ar      11 UNK        -0.0687 
     10 C10       -78.1562   28.1107  -71.7917 C.ar      11 UNK        -0.0823 
     11 C11       -77.2304   27.2868  -71.1495 C.ar      11 UNK        -0.0830 
     12 C12       -75.8667   27.5677  -71.2575 C.ar      11 UNK        -0.1021 
     13 C13       -75.4282   28.6459  -72.0304 C.ar      11 UNK        -0.0753 
     14 C14       -76.3655   29.4391  -72.7006 C.ar      11 UNK        -0.0933 
     15 C15       -73.9422   28.9421  -72.1584 C.3       11 UNK         0.0166 
     16 S16       -73.5062   30.4804  -71.2907 S.3       11 UNK        -0.2615 
     17 C17       -71.6932   30.5197  -71.4850 C.3       11 UNK        -0.0865 
     18 CA        -71.2412   31.3958  -72.6826 C.3       10 UNK         0.0862 
     19 C         -69.7317   31.7256  -72.5810 C.2       10 UNK         0.5551 
     20 N         -69.3854   32.9365  -72.1673 N.am      10 UNK        -0.7319 
     21 O         -68.8736   30.8827  -72.8360 O.2       10 UNK        -0.5018 
     22 N         -71.4993   30.7201  -73.9570 N.am      10 UNK        -0.4509 
     23 C         -72.3578   31.1019  -74.9049 C.2       10 UNK         0.4899 
     24 O         -73.0838   32.0920  -74.8141 O.2       10 UNK        -0.4839 
     25 CA        -72.4440   30.2330  -76.1756 C.3       9 UNK         0.0222 
     26 CB        -71.4511   30.7241  -77.2468 C.3       9 UNK        -0.1966 
     27 N         -72.3290   28.7803  -75.9611 N.am      9 UNK        -0.4218 
     28 C         -71.2714   28.0647  -75.5406 C.2       9 UNK         0.5020 
     29 O         -70.1892   28.5656  -75.2342 O.2       9 UNK        -0.5274 
     30 CA        -71.4364   26.5386  -75.4008 C.3       8 UNK         0.0270 
     31 CB        -71.4957   26.1414  -73.9165 C.3       8 UNK        -0.1976 
     32 N         -72.6178   26.0146  -76.0901 N.am      8 UNK        -0.4313 
     33 C         -72.7117   25.8714  -77.4218 C.2       8 UNK         0.5041 
     34 O         -71.7720   26.0718  -78.1923 O.2       8 UNK        -0.5577 
     35 CA        -74.0782   25.4639  -78.0099 C.3       7 UNK         0.0284 
     36 CB        -74.0731   23.9785  -78.4046 C.3       7 UNK        -0.1958 
     37 N         -75.2182   25.7202  -77.1252 N.am      7 UNK        -0.4454 
     38 C         -75.5858   26.9223  -76.6576 C.2       7 UNK         0.5089 
     39 O         -75.0302   27.9760  -76.9680 O.2       7 UNK        -0.5125 
     40 CA        -76.7181   26.9484  -75.6174 C.3       6 UNK         0.0408 
     41 CB        -78.0489   27.2953  -76.2985 C.3       6 UNK        -0.1791 
     42 N         -76.8545   25.7058  -74.8417 N.am      6 UNK        -0.4762 
     43 C         -75.8904   25.1954  -74.0547 C.2       6 UNK         0.5007 
     44 O         -74.7764   25.7102  -73.9472 O.2       6 UNK        -0.5032 
     45 CA        -76.1454   23.8598  -73.3329 C.3       5 UNK         0.0783 
     46 C46       -76.4743   24.0125  -71.8263 C.3       11 UNK        -0.0857 
     47 S47       -78.1304   24.6900  -71.4575 S.3       11 UNK        -0.2512 
     48 C48       -77.7202   26.0852  -70.3572 C.3       11 UNK         0.0225 
     49 N         -77.0887   22.9972  -74.0516 N.am      5 UNK        -0.4615 
     50 C         -76.9037   21.6801  -74.2222 C.2       4 UNK         0.5053 
     51 O         -75.9571   21.0573  -73.7388 O.2       4 UNK        -0.5105 
     52 CA        -77.9247   20.9074  -75.0803 C.3       4 UNK         0.0263 
     53 CB        -78.9424   20.1902  -74.1784 C.3       4 UNK        -0.1981 
     54 N         -78.6480   21.7324  -76.0487 N.am      4 UNK        -0.4224 
     55 C         -78.0998   22.4461  -77.0426 C.2       3 UNK         0.4895 
     56 O         -76.9008   22.4323  -77.3189 O.2       3 UNK        -0.5091 
     57 CA        -79.0408   23.3684  -77.8408 C.3       3 UNK         0.0250 
     58 CB        -79.3731   22.7411  -79.2042 C.3       3 UNK        -0.1996 
     59 N         -80.2925   23.7272  -77.1564 N.am      3 UNK        -0.4254 
     60 C         -80.3828   24.3449  -75.9702 C.2       2 UNK         0.5004 
     61 O         -79.4098   24.6132  -75.2592 O.2       2 UNK        -0.5226 
     62 CA        -81.7932   24.6724  -75.4644 C.3       2 UNK         0.0269 
     63 CB        -82.2038   23.6848  -74.3602 C.3       2 UNK        -0.1926 
     64 N         -81.8145   26.0301  -74.9258 N.am      2 UNK        -0.4687 
     65 C         -81.9162   27.1410  -75.6687 C.2       1 UNK         0.5165 
     66 O         -82.1460   27.1277  -76.8797 O.2       1 UNK        -0.5079 
     67 H67       -86.1078   29.3925  -74.8527 H         1 UNK         0.0900 
     68 H68       -85.5532   30.2540  -73.4146 H         1 UNK         0.0900 
     69 H69       -85.0119   30.7664  -75.0138 H         1 UNK         0.0900 
     70 H70       -82.9380   30.1241  -75.4616 H         1 UNK         0.2959 
     71 H71       -81.0343   29.0552  -75.6225 H         1 UNK         0.1079 
     72 H72       -81.6297   27.8927  -72.8538 H         1 UNK         0.0837 
     73 H73       -80.1064   27.7417  -73.6881 H         1 UNK         0.0837 
     74 H74       -78.6188   29.8265  -74.4416 H         1 UNK         0.0685 
     75 H75       -78.3916   31.1072  -73.2786 H         1 UNK         0.0685 
     76 H76       -79.2034   27.8832  -71.6702 H         1 UNK         0.1434 
     77 H77       -75.1455   26.9388  -70.7542 H         1 UNK         0.1329 
     78 H78       -76.0196   30.2617  -73.3122 H         1 UNK         0.1335 
     79 H79       -73.3516   28.1202  -71.7512 H         1 UNK         0.0680 
     80 H80       -73.6810   29.0210  -73.2137 H         1 UNK         0.0680 
     81 H81       -71.2991   29.5050  -71.5699 H         1 UNK         0.1032 
     82 H82       -71.2904   30.9169  -70.5510 H         1 UNK         0.1032 
     83 H83       -71.7902   32.3392  -72.6469 H         1 UNK         0.0461 
     84 H84       -70.0823   33.6304  -71.9439 H         1 UNK         0.3453 
     85 H85       -68.4070   33.1641  -72.0810 H         1 UNK         0.3453 
     86 H86       -70.8751   29.9467  -74.1766 H         1 UNK         0.2984 
     87 H87       -73.4484   30.3786  -76.5765 H         1 UNK         0.0554 
     88 H88       -70.4154   30.6303  -76.9190 H         1 UNK         0.0847 
     89 H89       -71.6209   31.7760  -77.4805 H         1 UNK         0.0847 
     90 H90       -71.5612   30.1641  -78.1755 H         1 UNK         0.0847 
     91 H91       -73.1788   28.2699  -76.1818 H         1 UNK         0.3141 
     92 H92       -70.5496   26.0750  -75.8383 H         1 UNK         0.0743 
     93 H93       -70.5909   26.4522  -73.3923 H         1 UNK         0.0784 
     94 H94       -72.3402   26.6061  -73.4080 H         1 UNK         0.0784 
     95 H95       -71.5849   25.0617  -73.7961 H         1 UNK         0.0784 
     96 H96       -73.4334   25.8342  -75.5120 H         1 UNK         0.3213 
     97 H97       -74.2259   26.0585  -78.9138 H         1 UNK         0.0855 
     98 H98       -73.9804   23.3290  -77.5332 H         1 UNK         0.0814 
     99 H99       -73.2398   23.7523  -79.0714 H         1 UNK         0.0814 
    100 H100      -74.9882   23.7047  -78.9302 H         1 UNK         0.0814 
    101 H101      -75.7332   24.9117  -76.8050 H         1 UNK         0.3105 
    102 H102      -76.4836   27.7442  -74.9099 H         1 UNK         0.0547 
    103 H103      -78.3341   26.5461  -77.0369 H         1 UNK         0.0837 
    104 H104      -77.9863   28.2547  -76.8139 H         1 UNK         0.0837 
    105 H105      -78.8530   27.3710  -75.5710 H         1 UNK         0.0837 
    106 H106      -77.7667   25.2555  -74.8855 H         1 UNK         0.3020 
    107 H107      -75.1660   23.3761  -73.3723 H         1 UNK         0.1245 
    108 H108      -75.7064   24.6139  -71.3379 H         1 UNK         0.0781 
    109 H109      -76.4146   23.0334  -71.3489 H         1 UNK         0.0781 
    110 H110      -76.9808   25.7742  -69.6174 H         1 UNK         0.0836 
    111 H111      -78.6123   26.3615  -69.7933 H         1 UNK         0.0836 
    112 H112      -77.9065   23.4417  -74.4533 H         1 UNK         0.3022 
    113 H113      -77.3700   20.1536  -75.6429 H         1 UNK         0.0747 
    114 H114      -79.6184   19.5633  -74.7602 H         1 UNK         0.0793 
    115 H115      -78.4387   19.5402  -73.4612 H         1 UNK         0.0793 
    116 H116      -79.5450   20.8987  -73.6082 H         1 UNK         0.0793 
    117 H117      -79.6433   21.8194  -75.9084 H         1 UNK         0.3047 
    118 H118      -78.4927   24.2954  -78.0193 H         1 UNK         0.0822 
    119 H119      -79.9431   23.4279  -79.8302 H         1 UNK         0.0807 
    120 H120      -79.9523   21.8232  -79.0959 H         1 UNK         0.0807 
    121 H121      -78.4632   22.4894  -79.7514 H         1 UNK         0.0807 
    122 H122      -81.1445   23.5266  -77.6611 H         1 UNK         0.2946 
    123 H123      -82.5076   24.5990  -76.2877 H         1 UNK         0.1144 
    124 H124      -83.1999   23.9099  -73.9785 H         1 UNK         0.0793 
    125 H125      -81.5098   23.7064  -73.5182 H         1 UNK         0.0793 
    126 H126      -82.2262   22.6618  -74.7380 H         1 UNK         0.0793 
    127 H127      -81.6190   26.1208  -73.9399 H         1 UNK         0.2896 
@<TRIPOS>BOND
     1    1    2 1    
     2    1   67 1    
     3    1   68 1    
     4    1   69 1    
     5    2    3 2    
     6    2    4 am   BACKBONE|DICT|INTERRES
     7    4    5 1    
     8    4   70 1    
     9    5    6 1    
    10    5   65 1    
    11    5   71 1    
    12    6    7 1    
    13    6   72 1    
    14    6   73 1    
    15    7    8 1    
    16    8    9 1    
    17    8   74 1    
    18    8   75 1    
    19    9   10 ar   
    20    9   14 ar   
    21   10   11 ar   
    22   10   76 1    
    23   11   12 ar   
    24   11   48 1    
    25   12   13 ar   
    26   12   77 1    
    27   13   14 ar   
    28   13   15 1    
    29   14   78 1    
    30   15   16 1    
    31   15   79 1    
    32   15   80 1    
    33   16   17 1    
    34   17   18 1    
    35   17   81 1    
    36   17   82 1    
    37   18   19 1    
    38   18   22 1    
    39   18   83 1    
    40   19   20 am   BACKBONE|DICT|INTERRES
    41   19   21 2    
    42   20   84 1    
    43   20   85 1    
    44   22   23 am   BACKBONE|DICT|INTERRES
    45   22   86 1    
    46   23   24 2    
    47   23   25 1    
    48   25   26 1    
    49   25   27 1    
    50   25   87 1    
    51   26   88 1    
    52   26   89 1    
    53   26   90 1    
    54   27   28 am   BACKBONE|DICT|INTERRES
    55   27   91 1    
    56   28   29 2    
    57   28   30 1    
    58   30   31 1    
    59   30   32 1    
    60   30   92 1    
    61   31   93 1    
    62   31   94 1    
    63   31   95 1    
    64   32   33 am   BACKBONE|DICT|INTERRES
    65   32   96 1    
    66   33   34 2    
    67   33   35 1    
    68   35   36 1    
    69   35   37 1    
    70   35   97 1    
    71   36   98 1    
    72   36   99 1    
    73   36  100 1    
    74   37   38 am   BACKBONE|DICT|INTERRES
    75   37  101 1    
    76   38   39 2    
    77   38   40 1    
    78   40   41 1    
    79   40   42 1    
    80   40  102 1    
    81   41  103 1    
    82   41  104 1    
    83   41  105 1    
    84   42   43 am   BACKBONE|DICT|INTERRES
    85   42  106 1    
    86   43   44 2    
    87   43   45 1    
    88   45   46 1    
    89   45   49 1    
    90   45  107 1    
    91   46   47 1    
    92   46  108 1    
    93   46  109 1    
    94   47   48 1    
    95   48  110 1    
    96   48  111 1    
    97   49   50 am   BACKBONE|DICT|INTERRES
    98   49  112 1    
    99   50   51 2    
   100   50   52 1    
   101   52   53 1    
   102   52   54 1    
   103   52  113 1    
   104   53  114 1    
   105   53  115 1    
   106   53  116 1    
   107   54   55 am   BACKBONE|DICT|INTERRES
   108   54  117 1    
   109   55   56 2    
   110   55   57 1    
   111   57   58 1    
   112   57   59 1    
   113   57  118 1    
   114   58  119 1    
   115   58  120 1    
   116   58  121 1    
   117   59   60 am   BACKBONE|DICT|INTERRES
   118   59  122 1    
   119   60   61 2    
   120   60   62 1    
   121   62   63 1    
   122   62   64 1    
   123   62  123 1    
   124   63  124 1    
   125   63  125 1    
   126   63  126 1    
   127   64   65 am   BACKBONE|DICT|INTERRES
   128   64  127 1    
   129   65   66 2    
@<TRIPOS>SUBSTRUCTURE
     1 UNK         1 GROUP             0       ****    0 ROOT    
