@<TRIPOS>MOLECULE
3R135
127   129    1
SMALL
USER_CHARGES


@<TRIPOS>ATOM
      1 CA        -80.3965   28.4531  -69.7991 C.3       0 UNK        -0.1998 
      2 C         -81.4092   28.1983  -70.9055 C.2       0 UNK         0.4909 
      3 O         -82.5717   27.9102  -70.6206 O.2       0 UNK        -0.5240 
      4 N         -80.9734   28.3069  -72.1669 N.am      1 UNK        -0.4739 
      5 CA        -81.7949   28.1361  -73.3744 C.3       1 UNK         0.0864 
      6 C6        -81.0575   28.5912  -74.6630 C.3       11 UNK        -0.0881 
      7 S7        -80.2060   30.2024  -74.5266 S.3       11 UNK        -0.2682 
      8 C8        -78.4669   29.7210  -74.7888 C.3       11 UNK         0.0289 
      9 C9        -77.7922   29.2604  -73.5042 C.ar      11 UNK        -0.0687 
     10 C10       -77.9701   27.9579  -73.0280 C.ar      11 UNK        -0.0823 
     11 C11       -77.3486   27.5391  -71.8462 C.ar      11 UNK        -0.0830 
     12 C12       -76.4953   28.4194  -71.1743 C.ar      11 UNK        -0.1021 
     13 C13       -76.2962   29.7191  -71.6484 C.ar      11 UNK        -0.0753 
     14 C14       -76.9696   30.1408  -72.7983 C.ar      11 UNK        -0.0933 
     15 C15       -75.3635   30.6682  -70.9095 C.3       11 UNK         0.0166 
     16 S16       -73.6736   30.6271  -71.5930 S.3       11 UNK        -0.2615 
     17 C17       -73.8680   31.5993  -73.1271 C.3       11 UNK        -0.0865 
     18 CA        -73.8786   30.7135  -74.4104 C.3       10 UNK         0.0862 
     19 C         -74.3975   31.4713  -75.6712 C.2       10 UNK         0.5551 
     20 N         -74.1053   31.0032  -76.8776 N.am      10 UNK        -0.7319 
     21 O         -75.0921   32.4791  -75.5637 O.2       10 UNK        -0.5018 
     22 N         -72.6099   29.9927  -74.6215 N.am      10 UNK        -0.4509 
     23 C         -71.4154   30.5487  -74.8672 C.2       10 UNK         0.4899 
     24 O         -71.2377   31.7648  -74.9525 O.2       10 UNK        -0.4839 
     25 CA        -70.2025   29.6179  -75.0830 C.3       9 UNK         0.0222 
     26 CB        -69.0294   29.9930  -74.1530 C.3       9 UNK        -0.1966 
     27 N         -70.4839   28.1764  -75.0200 N.am      9 UNK        -0.4218 
     28 C         -70.8604   27.4321  -73.9699 C.2       9 UNK         0.5020 
     29 O         -71.0344   27.8826  -72.8375 O.2       9 UNK        -0.5274 
     30 CA        -71.1061   25.9344  -74.2508 C.3       8 UNK         0.0270 
     31 CB        -71.7609   25.2063  -73.0613 C.3       8 UNK        -0.1976 
     32 N         -71.9275   25.7325  -75.4501 N.am      8 UNK        -0.4313 
     33 C         -71.4664   25.7543  -76.7106 C.2       8 UNK         0.5041 
     34 O         -70.2799   25.9367  -76.9857 O.2       8 UNK        -0.5577 
     35 CA        -72.4795   25.6051  -77.8607 C.3       7 UNK         0.0284 
     36 CB        -72.5137   24.1516  -78.3578 C.3       7 UNK        -0.1958 
     37 N         -73.8344   26.0325  -77.5074 N.am      7 UNK        -0.4454 
     38 C         -74.1827   27.2919  -77.1995 C.2       7 UNK         0.5089 
     39 O         -73.4053   28.2453  -77.2525 O.2       7 UNK        -0.5125 
     40 CA        -75.6283   27.5297  -76.7141 C.3       6 UNK         0.0408 
     41 CB        -76.4908   28.0341  -77.8818 C.3       6 UNK        -0.1791 
     42 N         -76.2677   26.3520  -76.1128 N.am      6 UNK        -0.4762 
     43 C         -75.7808   25.6399  -75.0826 C.2       6 UNK         0.5007 
     44 O         -74.7369   25.9313  -74.4990 O.2       6 UNK        -0.5032 
     45 CA        -76.5131   24.3282  -74.7190 C.3       5 UNK         0.0783 
     46 C46       -77.4247   24.4456  -73.4776 C.3       11 UNK        -0.0857 
     47 S47       -76.5600   24.8606  -71.9264 S.3       11 UNK        -0.2512 
     48 C48       -77.6357   26.1646  -71.2533 C.3       11 UNK         0.0225 
     49 N         -77.2706   23.7786  -75.8498 N.am      5 UNK        -0.4615 
     50 C         -76.7244   23.2454  -76.9511 C.2       4 UNK         0.5053 
     51 O         -75.5095   23.2313  -77.1498 O.2       4 UNK        -0.5105 
     52 CA        -77.6634   22.6737  -78.0347 C.3       4 UNK         0.0263 
     53 CB        -77.2360   21.2541  -78.4628 C.3       4 UNK        -0.1981 
     54 N         -79.0988   22.7198  -77.7127 N.am      4 UNK        -0.4224 
     55 C         -79.7547   22.0562  -76.7487 C.2       3 UNK         0.4895 
     56 O         -79.2318   21.2676  -75.9591 O.2       3 UNK        -0.5091 
     57 CA        -81.2604   22.3521  -76.6349 C.3       3 UNK         0.0250 
     58 CB        -82.0879   21.1006  -76.9721 C.3       3 UNK        -0.1996 
     59 N         -81.6384   22.8421  -75.3054 N.am      3 UNK        -0.4254 
     60 C         -81.1410   23.9378  -74.7152 C.2       2 UNK         0.5004 
     61 O         -80.2620   24.6482  -75.2140 O.2       2 UNK        -0.5226 
     62 CA        -81.7132   24.2856  -73.3281 C.3       2 UNK         0.0269 
     63 CB        -81.0197   23.4702  -72.2245 C.3       2 UNK        -0.1926 
     64 N         -81.5510   25.7107  -73.0367 N.am      2 UNK        -0.4687 
     65 C         -82.2929   26.6877  -73.5770 C.2       1 UNK         0.5165 
     66 O         -83.3076   26.4828  -74.2455 O.2       1 UNK        -0.5079 
     67 H67       -80.1684   27.5246  -69.2765 H         1 UNK         0.0900 
     68 H68       -80.8002   29.1614  -69.0762 H         1 UNK         0.0900 
     69 H69       -79.4649   28.8652  -70.1872 H         1 UNK         0.0900 
     70 H70       -80.0213   28.6032  -72.3357 H         1 UNK         0.2959 
     71 H71       -82.6804   28.7636  -73.2508 H         1 UNK         0.1079 
     72 H72       -80.3429   27.8331  -74.9885 H         1 UNK         0.0837 
     73 H73       -81.7747   28.6739  -75.4822 H         1 UNK         0.0837 
     74 H74       -78.4027   28.9383  -75.5440 H         1 UNK         0.0685 
     75 H75       -77.9314   30.5766  -75.2038 H         1 UNK         0.0685 
     76 H76       -78.6145   27.2829  -73.5691 H         1 UNK         0.1434 
     77 H77       -75.9946   28.0972  -70.2713 H         1 UNK         0.1329 
     78 H78       -76.8371   31.1506  -73.1600 H         1 UNK         0.1335 
     79 H79       -75.3168   30.3930  -69.8548 H         1 UNK         0.0680 
     80 H80       -75.7546   31.6864  -70.9359 H         1 UNK         0.0680 
     81 H81       -73.0639   32.3342  -73.1741 H         1 UNK         0.1032 
     82 H82       -74.7811   32.1896  -73.0479 H         1 UNK         0.1032 
     83 H83       -74.6184   29.9293  -74.2526 H         1 UNK         0.0461 
     84 H84       -74.4381   31.4945  -77.6911 H         1 UNK         0.3453 
     85 H85       -73.6076   30.1241  -76.9831 H         1 UNK         0.3453 
     86 H86       -72.6637   28.9865  -74.5766 H         1 UNK         0.2984 
     87 H87       -69.8745   29.7995  -76.1074 H         1 UNK         0.0554 
     88 H88       -68.1584   29.3641  -74.3367 H         1 UNK         0.0847 
     89 H89       -69.2989   29.8962  -73.1009 H         1 UNK         0.0847 
     90 H90       -68.7188   31.0266  -74.3112 H         1 UNK         0.0847 
     91 H91       -70.3735   27.6755  -75.8968 H         1 UNK         0.3141 
     92 H92       -70.1276   25.4776  -74.4137 H         1 UNK         0.0743 
     93 H93       -72.7195   25.6516  -72.7921 H         1 UNK         0.0784 
     94 H94       -71.9311   24.1528  -73.2836 H         1 UNK         0.0784 
     95 H95       -71.1233   25.2512  -72.1775 H         1 UNK         0.0784 
     96 H96       -72.9296   25.6658  -75.2924 H         1 UNK         0.3213 
     97 H97       -72.1368   26.2391  -78.6813 H         1 UNK         0.0855 
     98 H98       -72.8289   23.4639  -77.5720 H         1 UNK         0.0814 
     99 H99       -71.5261   23.8313  -78.6927 H         1 UNK         0.0814 
    100 H100      -73.1955   24.0333  -79.2002 H         1 UNK         0.0814 
    101 H101      -74.5300   25.3017  -77.4196 H         1 UNK         0.3105 
    102 H102      -75.5946   28.3062  -75.9475 H         1 UNK         0.0547 
    103 H103      -76.0770   28.9525  -78.3009 H         1 UNK         0.0837 
    104 H104      -76.5418   27.3031  -78.6897 H         1 UNK         0.0837 
    105 H105      -77.5101   28.2557  -77.5695 H         1 UNK         0.0837 
    106 H106      -77.1176   26.0241  -76.5485 H         1 UNK         0.3020 
    107 H107      -75.7299   23.6048  -74.4796 H         1 UNK         0.1245 
    108 H108      -77.9169   23.4864  -73.3104 H         1 UNK         0.0781 
    109 H109      -78.2276   25.1540  -73.6660 H         1 UNK         0.0781 
    110 H110      -77.4936   26.1970  -70.1719 H         1 UNK         0.0836 
    111 H111      -78.6825   25.8974  -71.4010 H         1 UNK         0.0836 
    112 H112      -78.2801   23.7918  -75.7627 H         1 UNK         0.3022 
    113 H113      -77.5366   23.3245  -78.9011 H         1 UNK         0.0747 
    114 H114      -77.8752   20.8693  -79.2574 H         1 UNK         0.0793 
    115 H115      -76.2134   21.2507  -78.8425 H         1 UNK         0.0793 
    116 H116      -77.2725   20.5498  -77.6312 H         1 UNK         0.0793 
    117 H117      -79.6357   23.3628  -78.2792 H         1 UNK         0.3047 
    118 H118      -81.5224   23.1330  -77.3521 H         1 UNK         0.0822 
    119 H119      -83.1566   21.3160  -76.9677 H         1 UNK         0.0807 
    120 H120      -81.8390   20.7242  -77.9654 H         1 UNK         0.0807 
    121 H121      -81.9043   20.2923  -76.2628 H         1 UNK         0.0807 
    122 H122      -82.3275   22.2953  -74.8096 H         1 UNK         0.2946 
    123 H123      -82.7796   24.0471  -73.3249 H         1 UNK         0.1144 
    124 H124      -81.1025   22.3990  -72.4134 H         1 UNK         0.0793 
    125 H125      -81.4727   23.6607  -71.2513 H         1 UNK         0.0793 
    126 H126      -79.9591   23.7062  -72.1478 H         1 UNK         0.0793 
    127 H127      -80.7346   25.9782  -72.5105 H         1 UNK         0.2896 
@<TRIPOS>BOND
     1    1    2 1    
     2    1   67 1    
     3    1   68 1    
     4    1   69 1    
     5    2    3 2    
     6    2    4 am   BACKBONE|DICT|INTERRES
     7    4    5 1    
     8    4   70 1    
     9    5    6 1    
    10    5   65 1    
    11    5   71 1    
    12    6    7 1    
    13    6   72 1    
    14    6   73 1    
    15    7    8 1    
    16    8    9 1    
    17    8   74 1    
    18    8   75 1    
    19    9   10 ar   
    20    9   14 ar   
    21   10   11 ar   
    22   10   76 1    
    23   11   12 ar   
    24   11   48 1    
    25   12   13 ar   
    26   12   77 1    
    27   13   14 ar   
    28   13   15 1    
    29   14   78 1    
    30   15   16 1    
    31   15   79 1    
    32   15   80 1    
    33   16   17 1    
    34   17   18 1    
    35   17   81 1    
    36   17   82 1    
    37   18   19 1    
    38   18   22 1    
    39   18   83 1    
    40   19   20 am   BACKBONE|DICT|INTERRES
    41   19   21 2    
    42   20   84 1    
    43   20   85 1    
    44   22   23 am   BACKBONE|DICT|INTERRES
    45   22   86 1    
    46   23   24 2    
    47   23   25 1    
    48   25   26 1    
    49   25   27 1    
    50   25   87 1    
    51   26   88 1    
    52   26   89 1    
    53   26   90 1    
    54   27   28 am   BACKBONE|DICT|INTERRES
    55   27   91 1    
    56   28   29 2    
    57   28   30 1    
    58   30   31 1    
    59   30   32 1    
    60   30   92 1    
    61   31   93 1    
    62   31   94 1    
    63   31   95 1    
    64   32   33 am   BACKBONE|DICT|INTERRES
    65   32   96 1    
    66   33   34 2    
    67   33   35 1    
    68   35   36 1    
    69   35   37 1    
    70   35   97 1    
    71   36   98 1    
    72   36   99 1    
    73   36  100 1    
    74   37   38 am   BACKBONE|DICT|INTERRES
    75   37  101 1    
    76   38   39 2    
    77   38   40 1    
    78   40   41 1    
    79   40   42 1    
    80   40  102 1    
    81   41  103 1    
    82   41  104 1    
    83   41  105 1    
    84   42   43 am   BACKBONE|DICT|INTERRES
    85   42  106 1    
    86   43   44 2    
    87   43   45 1    
    88   45   46 1    
    89   45   49 1    
    90   45  107 1    
    91   46   47 1    
    92   46  108 1    
    93   46  109 1    
    94   47   48 1    
    95   48  110 1    
    96   48  111 1    
    97   49   50 am   BACKBONE|DICT|INTERRES
    98   49  112 1    
    99   50   51 2    
   100   50   52 1    
   101   52   53 1    
   102   52   54 1    
   103   52  113 1    
   104   53  114 1    
   105   53  115 1    
   106   53  116 1    
   107   54   55 am   BACKBONE|DICT|INTERRES
   108   54  117 1    
   109   55   56 2    
   110   55   57 1    
   111   57   58 1    
   112   57   59 1    
   113   57  118 1    
   114   58  119 1    
   115   58  120 1    
   116   58  121 1    
   117   59   60 am   BACKBONE|DICT|INTERRES
   118   59  122 1    
   119   60   61 2    
   120   60   62 1    
   121   62   63 1    
   122   62   64 1    
   123   62  123 1    
   124   63  124 1    
   125   63  125 1    
   126   63  126 1    
   127   64   65 am   BACKBONE|DICT|INTERRES
   128   64  127 1    
   129   65   66 2    
@<TRIPOS>SUBSTRUCTURE
     1 UNK         1 GROUP             0       ****    0 ROOT    
