@<TRIPOS>MOLECULE
3R135
127   129    1
SMALL
USER_CHARGES


@<TRIPOS>ATOM
      1 CA        -84.7628   30.0309  -74.8033 C.3       0 UNK        -0.1998 
      2 C         -83.4967   29.5517  -75.4971 C.2       0 UNK         0.4909 
      3 O         -83.3867   29.6655  -76.7182 O.2       0 UNK        -0.5240 
      4 N         -82.5390   29.0206  -74.7265 N.am      1 UNK        -0.4739 
      5 CA        -81.2706   28.4675  -75.2180 C.3       1 UNK         0.0864 
      6 C6        -80.2406   28.2768  -74.0724 C.3       11 UNK        -0.0881 
      7 S7        -80.8802   27.3019  -72.6606 S.3       11 UNK        -0.2682 
      8 C8        -80.5580   28.4100  -71.2515 C.3       11 UNK         0.0289 
      9 C9        -79.0755   28.4682  -70.9143 C.ar      11 UNK        -0.0687 
     10 C10       -78.4506   27.3590  -70.3342 C.ar      11 UNK        -0.0823 
     11 C11       -77.0815   27.3851  -70.0570 C.ar      11 UNK        -0.0830 
     12 C12       -76.3493   28.5463  -70.3138 C.ar      11 UNK        -0.1021 
     13 C13       -76.9544   29.6492  -70.9167 C.ar      11 UNK        -0.0753 
     14 C14       -78.3221   29.6115  -71.2069 C.ar      11 UNK        -0.0933 
     15 C15       -76.1033   30.8495  -71.2953 C.3       11 UNK         0.0166 
     16 S16       -75.2326   30.5438  -72.8704 S.3       11 UNK        -0.2615 
     17 C17       -73.5219   31.0858  -72.5037 C.3       11 UNK        -0.0865 
     18 CA        -72.4388   29.9852  -72.7100 C.3       10 UNK         0.0862 
     19 C         -72.5164   28.8008  -71.7075 C.2       10 UNK         0.5551 
     20 N         -72.5557   29.0823  -70.4117 N.am      10 UNK        -0.7319 
     21 O         -72.5068   27.6295  -72.0797 O.2       10 UNK        -0.5018 
     22 N         -72.3713   29.5305  -74.1046 N.am      10 UNK        -0.4509 
     23 C         -71.7157   30.1568  -75.0876 C.2       10 UNK         0.4899 
     24 O         -71.0665   31.1914  -74.9216 O.2       10 UNK        -0.4839 
     25 CA        -71.8230   29.5379  -76.4945 C.3       9 UNK         0.0222 
     26 CB        -70.8268   30.1410  -77.5081 C.3       9 UNK        -0.1966 
     27 N         -71.7508   28.0745  -76.4845 N.am      9 UNK        -0.4218 
     28 C         -70.7170   27.2889  -76.1476 C.2       9 UNK         0.5020 
     29 O         -69.6106   27.7104  -75.8078 O.2       9 UNK        -0.5274 
     30 CA        -70.9523   25.7632  -76.1945 C.3       8 UNK         0.0270 
     31 CB        -71.0507   25.1921  -74.7706 C.3       8 UNK        -0.1976 
     32 N         -72.1490   25.3756  -76.9516 N.am      8 UNK        -0.4313 
     33 C         -72.2686   25.4496  -78.2856 C.2       8 UNK         0.5041 
     34 O         -71.3437   25.7486  -79.0414 O.2       8 UNK        -0.5577 
     35 CA        -73.6682   25.1954  -78.8700 C.3       7 UNK         0.0284 
     36 CB        -73.8905   23.6993  -79.1464 C.3       7 UNK        -0.1958 
     37 N         -74.7224   25.7076  -77.9888 N.am      7 UNK        -0.4454 
     38 C         -75.0353   27.0065  -77.8674 C.2       7 UNK         0.5089 
     39 O         -74.5198   27.8978  -78.5411 O.2       7 UNK        -0.5125 
     40 CA        -76.0637   27.3875  -76.7881 C.3       6 UNK         0.0408 
     41 CB        -77.4845   27.3763  -77.3663 C.3       6 UNK        -0.1791 
     42 N         -76.0046   26.5231  -75.6070 N.am      6 UNK        -0.4762 
     43 C         -74.9804   26.5121  -74.7374 C.2       6 UNK         0.5007 
     44 O         -74.0113   27.2616  -74.8331 O.2       6 UNK        -0.5032 
     45 CA        -75.0232   25.4710  -73.5961 C.3       5 UNK         0.0783 
     46 C46       -75.7106   26.1074  -72.3704 C.3       11 UNK        -0.0857 
     47 S47       -76.0250   24.9736  -70.9689 S.3       11 UNK        -0.2512 
     48 C48       -76.3585   26.1300  -69.5888 C.3       11 UNK         0.0225 
     49 N         -75.6696   24.2208  -73.9962 N.am      5 UNK        -0.4615 
     50 C         -75.3525   23.4635  -75.0530 C.2       4 UNK         0.5053 
     51 O         -74.3713   23.6734  -75.7666 O.2       4 UNK        -0.5105 
     52 CA        -76.3273   22.3252  -75.4150 C.3       4 UNK         0.0263 
     53 CB        -75.7134   20.9633  -75.0553 C.3       4 UNK        -0.1981 
     54 N         -77.6558   22.4389  -74.7917 N.am      4 UNK        -0.4224 
     55 C         -78.5123   23.4600  -74.9511 C.2       3 UNK         0.4895 
     56 O         -78.2836   24.4441  -75.6597 O.2       3 UNK        -0.5091 
     57 CA        -79.7805   23.4091  -74.0835 C.3       3 UNK         0.0250 
     58 CB        -79.4561   23.8825  -72.6552 C.3       3 UNK        -0.1996 
     59 N         -80.8530   24.2454  -74.6228 N.am      3 UNK        -0.4254 
     60 C         -81.5887   23.9524  -75.7049 C.2       2 UNK         0.5004 
     61 O         -81.4772   22.9040  -76.3422 O.2       2 UNK        -0.5226 
     62 CA        -82.6474   24.9851  -76.1417 C.3       2 UNK         0.0269 
     63 CB        -84.0550   24.5197  -75.7341 C.3       2 UNK        -0.1926 
     64 N         -82.4125   26.3228  -75.5901 N.am      2 UNK        -0.4687 
     65 C         -81.4616   27.1636  -76.0217 C.2       1 UNK         0.5165 
     66 O         -80.7531   26.9421  -77.0031 O.2       1 UNK        -0.5079 
     67 H67       -84.9122   31.0943  -74.9882 H         1 UNK         0.0900 
     68 H68       -85.6284   29.4928  -75.1888 H         1 UNK         0.0900 
     69 H69       -84.7204   29.8770  -73.7252 H         1 UNK         0.0900 
     70 H70       -82.6809   28.9497  -73.7285 H         1 UNK         0.2959 
     71 H71       -80.8496   29.1943  -75.9169 H         1 UNK         0.1079 
     72 H72       -79.9248   29.2579  -73.7164 H         1 UNK         0.0837 
     73 H73       -79.3297   27.7983  -74.4381 H         1 UNK         0.0837 
     74 H74       -80.9537   29.4040  -71.4657 H         1 UNK         0.0685 
     75 H75       -81.1072   28.0428  -70.3834 H         1 UNK         0.0685 
     76 H76       -79.0197   26.4580  -70.1492 H         1 UNK         0.1434 
     77 H77       -75.2862   28.5653  -70.1181 H         1 UNK         0.1329 
     78 H78       -78.7931   30.4621  -71.6800 H         1 UNK         0.1335 
     79 H79       -76.7203   31.7437  -71.3953 H         1 UNK         0.0680 
     80 H80       -75.3981   31.0523  -70.4887 H         1 UNK         0.0680 
     81 H81       -73.4573   31.4977  -71.4967 H         1 UNK         0.1032 
     82 H82       -73.3016   31.9295  -73.1592 H         1 UNK         0.1032 
     83 H83       -71.4731   30.4427  -72.4860 H         1 UNK         0.0461 
     84 H84       -72.5237   30.0319  -70.0777 H         1 UNK         0.3453 
     85 H85       -72.5773   28.3212  -69.7521 H         1 UNK         0.3453 
     86 H86       -72.8754   28.6671  -74.3011 H         1 UNK         0.2984 
     87 H87       -72.8272   29.7779  -76.8470 H         1 UNK         0.0554 
     88 H88       -70.9444   29.6918  -78.4942 H         1 UNK         0.0847 
     89 H89       -69.7921   29.9991  -77.1950 H         1 UNK         0.0847 
     90 H90       -70.9862   31.2140  -77.6208 H         1 UNK         0.0847 
     91 H91       -72.6281   27.6065  -76.6679 H         1 UNK         0.3141 
     92 H92       -70.0853   25.3134  -76.6828 H         1 UNK         0.0743 
     93 H93       -71.8458   25.6711  -74.1999 H         1 UNK         0.0784 
     94 H94       -71.2388   24.1182  -74.7799 H         1 UNK         0.0784 
     95 H95       -70.1215   25.3550  -74.2230 H         1 UNK         0.0784 
     96 H96       -72.9451   25.0406  -76.4185 H         1 UNK         0.3213 
     97 H97       -73.7302   25.7243  -79.8239 H         1 UNK         0.0855 
     98 H98       -73.8033   23.0961  -78.2428 H         1 UNK         0.0814 
     99 H99       -73.1515   23.3246  -79.8558 H         1 UNK         0.0814 
    100 H100      -74.8744   23.5171  -79.5786 H         1 UNK         0.0814 
    101 H101      -75.1496   25.0443  -77.3557 H         1 UNK         0.3105 
    102 H102      -75.8405   28.4079  -76.4683 H         1 UNK         0.0547 
    103 H103      -77.5532   28.0055  -78.2546 H         1 UNK         0.0837 
    104 H104      -77.8014   26.3721  -77.6509 H         1 UNK         0.0837 
    105 H105      -78.2030   27.7609  -76.6442 H         1 UNK         0.0837 
    106 H106      -76.7658   25.8611  -75.4857 H         1 UNK         0.3020 
    107 H107      -73.9930   25.2318  -73.3272 H         1 UNK         0.1245 
    108 H108      -76.6706   26.5439  -72.6568 H         1 UNK         0.0781 
    109 H109      -75.0899   26.9300  -72.0148 H         1 UNK         0.0781 
    110 H110      -75.4120   26.3931  -69.1139 H         1 UNK         0.0836 
    111 H111      -76.9505   25.6203  -68.8274 H         1 UNK         0.0836 
    112 H112      -76.4759   23.9587  -73.4499 H         1 UNK         0.3022 
    113 H113      -76.4696   22.3628  -76.4969 H         1 UNK         0.0747 
    114 H114      -76.3433   20.1407  -75.3943 H         1 UNK         0.0793 
    115 H115      -74.7385   20.8371  -75.5288 H         1 UNK         0.0793 
    116 H116      -75.5688   20.8570  -73.9793 H         1 UNK         0.0793 
    117 H117      -77.9197   21.6848  -74.1732 H         1 UNK         0.3047 
    118 H118      -80.1379   22.3778  -74.0432 H         1 UNK         0.0822 
    119 H119      -79.0336   24.8886  -72.6484 H         1 UNK         0.0807 
    120 H120      -78.7307   23.2250  -72.1744 H         1 UNK         0.0807 
    121 H121      -80.3463   23.8909  -72.0259 H         1 UNK         0.0807 
    122 H122      -80.9905   25.1437  -74.1818 H         1 UNK         0.2946 
    123 H123      -82.6072   25.0464  -77.2318 H         1 UNK         0.1144 
    124 H124      -84.8203   25.2069  -76.0956 H         1 UNK         0.0793 
    125 H125      -84.1569   24.4410  -74.6510 H         1 UNK         0.0793 
    126 H126      -84.2787   23.5382  -76.1546 H         1 UNK         0.0793 
    127 H127      -82.9557   26.5914  -74.7820 H         1 UNK         0.2896 
@<TRIPOS>BOND
     1    1    2 1    
     2    1   67 1    
     3    1   68 1    
     4    1   69 1    
     5    2    3 2    
     6    2    4 am   BACKBONE|DICT|INTERRES
     7    4    5 1    
     8    4   70 1    
     9    5    6 1    
    10    5   65 1    
    11    5   71 1    
    12    6    7 1    
    13    6   72 1    
    14    6   73 1    
    15    7    8 1    
    16    8    9 1    
    17    8   74 1    
    18    8   75 1    
    19    9   10 ar   
    20    9   14 ar   
    21   10   11 ar   
    22   10   76 1    
    23   11   12 ar   
    24   11   48 1    
    25   12   13 ar   
    26   12   77 1    
    27   13   14 ar   
    28   13   15 1    
    29   14   78 1    
    30   15   16 1    
    31   15   79 1    
    32   15   80 1    
    33   16   17 1    
    34   17   18 1    
    35   17   81 1    
    36   17   82 1    
    37   18   19 1    
    38   18   22 1    
    39   18   83 1    
    40   19   20 am   BACKBONE|DICT|INTERRES
    41   19   21 2    
    42   20   84 1    
    43   20   85 1    
    44   22   23 am   BACKBONE|DICT|INTERRES
    45   22   86 1    
    46   23   24 2    
    47   23   25 1    
    48   25   26 1    
    49   25   27 1    
    50   25   87 1    
    51   26   88 1    
    52   26   89 1    
    53   26   90 1    
    54   27   28 am   BACKBONE|DICT|INTERRES
    55   27   91 1    
    56   28   29 2    
    57   28   30 1    
    58   30   31 1    
    59   30   32 1    
    60   30   92 1    
    61   31   93 1    
    62   31   94 1    
    63   31   95 1    
    64   32   33 am   BACKBONE|DICT|INTERRES
    65   32   96 1    
    66   33   34 2    
    67   33   35 1    
    68   35   36 1    
    69   35   37 1    
    70   35   97 1    
    71   36   98 1    
    72   36   99 1    
    73   36  100 1    
    74   37   38 am   BACKBONE|DICT|INTERRES
    75   37  101 1    
    76   38   39 2    
    77   38   40 1    
    78   40   41 1    
    79   40   42 1    
    80   40  102 1    
    81   41  103 1    
    82   41  104 1    
    83   41  105 1    
    84   42   43 am   BACKBONE|DICT|INTERRES
    85   42  106 1    
    86   43   44 2    
    87   43   45 1    
    88   45   46 1    
    89   45   49 1    
    90   45  107 1    
    91   46   47 1    
    92   46  108 1    
    93   46  109 1    
    94   47   48 1    
    95   48  110 1    
    96   48  111 1    
    97   49   50 am   BACKBONE|DICT|INTERRES
    98   49  112 1    
    99   50   51 2    
   100   50   52 1    
   101   52   53 1    
   102   52   54 1    
   103   52  113 1    
   104   53  114 1    
   105   53  115 1    
   106   53  116 1    
   107   54   55 am   BACKBONE|DICT|INTERRES
   108   54  117 1    
   109   55   56 2    
   110   55   57 1    
   111   57   58 1    
   112   57   59 1    
   113   57  118 1    
   114   58  119 1    
   115   58  120 1    
   116   58  121 1    
   117   59   60 am   BACKBONE|DICT|INTERRES
   118   59  122 1    
   119   60   61 2    
   120   60   62 1    
   121   62   63 1    
   122   62   64 1    
   123   62  123 1    
   124   63  124 1    
   125   63  125 1    
   126   63  126 1    
   127   64   65 am   BACKBONE|DICT|INTERRES
   128   64  127 1    
   129   65   66 2    
@<TRIPOS>SUBSTRUCTURE
     1 UNK         1 GROUP             0       ****    0 ROOT    
