@<TRIPOS>MOLECULE
3R135
127   129    1
SMALL
USER_CHARGES


@<TRIPOS>ATOM
      1 CA        -79.2560   28.1547  -70.3746 C.3       0 UNK        -0.1998 
      2 C         -80.2787   27.8869  -71.4670 C.2       0 UNK         0.4909 
      3 O         -81.4579   27.6872  -71.1712 O.2       0 UNK        -0.5240 
      4 N         -79.8353   27.8914  -72.7294 N.am      1 UNK        -0.4739 
      5 CA        -80.6594   27.5916  -73.9040 C.3       1 UNK         0.0864 
      6 C6        -79.9686   28.0013  -75.2284 C.3       11 UNK        -0.0881 
      7 S7        -79.7542   29.8069  -75.3699 S.3       11 UNK        -0.2682 
      8 C8        -77.9440   29.9780  -75.4104 C.3       11 UNK         0.0289 
      9 C9        -77.3234   29.7395  -74.0433 C.ar      11 UNK        -0.0687 
     10 C10       -76.7702   28.4978  -73.7222 C.ar      11 UNK        -0.0823 
     11 C11       -76.1827   28.2820  -72.4725 C.ar      11 UNK        -0.0830 
     12 C12       -76.1485   29.3218  -71.5390 C.ar      11 UNK        -0.1021 
     13 C13       -76.6946   30.5703  -71.8516 C.ar      11 UNK        -0.0753 
     14 C14       -77.2836   30.7716  -73.1029 C.ar      11 UNK        -0.0933 
     15 C15       -76.6562   31.7068  -70.8421 C.3       11 UNK         0.0166 
     16 S16       -75.3353   32.9028  -71.2198 S.3       11 UNK        -0.2615 
     17 C17       -73.8367   31.9941  -70.7051 C.3       11 UNK        -0.0865 
     18 CA        -72.8450   31.7306  -71.8701 C.3       10 UNK         0.0862 
     19 C         -71.5137   31.1270  -71.3266 C.2       10 UNK         0.5551 
     20 N         -71.1137   29.9167  -71.6997 N.am      10 UNK        -0.7319 
     21 O         -70.8249   31.7791  -70.5457 O.2       10 UNK        -0.5018 
     22 N         -73.4691   30.9662  -72.9618 N.am      10 UNK        -0.4509 
     23 C         -72.9716   30.8567  -74.1985 C.2       10 UNK         0.4899 
     24 O         -71.9826   31.4672  -74.6095 O.2       10 UNK        -0.4839 
     25 CA        -73.6986   29.8768  -75.1322 C.3       9 UNK         0.0222 
     26 CB        -74.3963   30.6182  -76.2830 C.3       9 UNK        -0.1966 
     27 N         -72.8072   28.8486  -75.6715 N.am      9 UNK        -0.4218 
     28 C         -72.0818   27.9912  -74.9374 C.2       9 UNK         0.5020 
     29 O         -72.0803   27.9736  -73.7038 O.2       9 UNK        -0.5274 
     30 CA        -71.2482   26.9688  -75.7252 C.3       8 UNK         0.0270 
     31 CB        -70.5817   25.9126  -74.8230 C.3       8 UNK        -0.1976 
     32 N         -72.1121   26.2972  -76.6937 N.am      8 UNK        -0.4313 
     33 C         -71.8400   26.1135  -77.9924 C.2       8 UNK         0.5041 
     34 O         -70.7906   26.4769  -78.5253 O.2       8 UNK        -0.5577 
     35 CA        -72.9048   25.4056  -78.8571 C.3       7 UNK         0.0284 
     36 CB        -72.4858   23.9533  -79.1394 C.3       7 UNK        -0.1958 
     37 N         -74.2456   25.4064  -78.2658 N.am      7 UNK        -0.4454 
     38 C         -75.0134   26.4923  -78.1036 C.2       7 UNK         0.5089 
     39 O         -74.7168   27.6076  -78.5316 O.2       7 UNK        -0.5125 
     40 CA        -76.3061   26.3204  -77.2828 C.3       6 UNK         0.0408 
     41 CB        -77.5327   26.2564  -78.2045 C.3       6 UNK        -0.1791 
     42 N         -76.3157   25.1710  -76.3628 N.am      6 UNK        -0.4762 
     43 C         -75.4580   24.9972  -75.3419 C.2       6 UNK         0.5007 
     44 O         -74.4858   25.7291  -75.1623 O.2       6 UNK        -0.5032 
     45 CA        -75.6912   23.8216  -74.3699 C.3       5 UNK         0.0783 
     46 C46       -75.5758   24.2253  -72.8743 C.3       11 UNK        -0.0857 
     47 S47       -76.7138   25.5547  -72.3443 S.3       11 UNK        -0.2512 
     48 C48       -75.5407   26.9405  -72.1575 C.3       11 UNK         0.0225 
     49 N         -76.9446   23.1119  -74.6488 N.am      5 UNK        -0.4615 
     50 C         -77.0068   21.8358  -75.0494 C.2       4 UNK         0.5053 
     51 O         -76.0181   21.1225  -75.2242 O.2       4 UNK        -0.5105 
     52 CA        -78.4000   21.2384  -75.3070 C.3       4 UNK         0.0263 
     53 CB        -78.9786   20.6603  -74.0054 C.3       4 UNK        -0.1981 
     54 N         -79.3846   22.1456  -75.9030 N.am      4 UNK        -0.4224 
     55 C         -79.2491   22.8792  -77.0145 C.2       3 UNK         0.4895 
     56 O         -78.1893   23.0031  -77.6276 O.2       3 UNK        -0.5091 
     57 CA        -80.5012   23.6080  -77.5433 C.3       3 UNK         0.0250 
     58 CB        -81.2905   22.7018  -78.5076 C.3       3 UNK        -0.1996 
     59 N         -81.3808   24.1853  -76.5137 N.am      3 UNK        -0.4254 
     60 C         -82.0939   23.5714  -75.5555 C.2       2 UNK         0.5004 
     61 O         -82.1335   22.3483  -75.4114 O.2       2 UNK        -0.5226 
     62 CA        -82.8654   24.4813  -74.5766 C.3       2 UNK         0.0269 
     63 CB        -83.0919   23.8100  -73.2044 C.3       2 UNK        -0.1926 
     64 N         -82.2656   25.8150  -74.4047 N.am      2 UNK        -0.4687 
     65 C         -81.0347   26.0974  -73.9471 C.2       1 UNK         0.5165 
     66 O         -80.2007   25.2448  -73.6320 O.2       1 UNK        -0.5079 
     67 H67       -79.6461   27.8623  -69.4001 H         1 UNK         0.0900 
     68 H68       -79.0081   29.2151  -70.3396 H         1 UNK         0.0900 
     69 H69       -78.3423   27.5886  -70.5521 H         1 UNK         0.0900 
     70 H70       -78.8560   28.0655  -72.9107 H         1 UNK         0.2959 
     71 H71       -81.5828   28.1676  -73.8078 H         1 UNK         0.1079 
     72 H72       -79.0098   27.4924  -75.3392 H         1 UNK         0.0837 
     73 H73       -80.5693   27.6920  -76.0860 H         1 UNK         0.0837 
     74 H74       -77.6972   30.9853  -75.7490 H         1 UNK         0.0685 
     75 H75       -77.5251   29.2998  -76.1546 H         1 UNK         0.0685 
     76 H76       -76.7787   27.6965  -74.4470 H         1 UNK         0.1434 
     77 H77       -75.6920   29.1618  -70.5716 H         1 UNK         0.1329 
     78 H78       -77.7066   31.7365  -73.3473 H         1 UNK         0.1335 
     79 H79       -76.5314   31.3252  -69.8274 H         1 UNK         0.0680 
     80 H80       -77.6141   32.2290  -70.8524 H         1 UNK         0.0680 
     81 H81       -73.3557   32.5926  -69.9288 H         1 UNK         0.1032 
     82 H82       -74.1129   31.0558  -70.2223 H         1 UNK         0.1032 
     83 H83       -72.5741   32.7033  -72.2854 H         1 UNK         0.0461 
     84 H84       -71.6456   29.3615  -72.3629 H         1 UNK         0.3453 
     85 H85       -70.2491   29.5540  -71.3321 H         1 UNK         0.3453 
     86 H86       -74.2984   30.4431  -72.7170 H         1 UNK         0.2984 
     87 H87       -74.4565   29.3521  -74.5563 H         1 UNK         0.0554 
     88 H88       -74.9842   29.9359  -76.8973 H         1 UNK         0.0847 
     89 H89       -73.6790   31.1229  -76.9314 H         1 UNK         0.0847 
     90 H90       -75.0786   31.3774  -75.8984 H         1 UNK         0.0847 
     91 H91       -72.7483   28.7836  -76.6776 H         1 UNK         0.3141 
     92 H92       -70.4639   27.5315  -76.2356 H         1 UNK         0.0743 
     93 H93       -71.3227   25.3371  -74.2664 H         1 UNK         0.0784 
     94 H94       -69.9835   25.2136  -75.4076 H         1 UNK         0.0784 
     95 H95       -69.9162   26.3813  -74.0969 H         1 UNK         0.0784 
     96 H96       -73.0179   26.0102  -76.3259 H         1 UNK         0.3213 
     97 H97       -72.9558   25.9394  -79.8086 H         1 UNK         0.0855 
     98 H98       -72.4268   23.3642  -78.2233 H         1 UNK         0.0814 
     99 H99       -71.5040   23.9158  -79.6137 H         1 UNK         0.0814 
    100 H100      -73.1870   23.4605  -79.8133 H         1 UNK         0.0814 
    101 H101      -74.5801   24.5333  -77.8848 H         1 UNK         0.3105 
    102 H102      -76.3989   27.2187  -76.6718 H         1 UNK         0.0547 
    103 H103      -77.5702   27.1234  -78.8656 H         1 UNK         0.0837 
    104 H104      -77.5166   25.3672  -78.8356 H         1 UNK         0.0837 
    105 H105      -78.4595   26.2497  -77.6318 H         1 UNK         0.0837 
    106 H106      -77.0293   24.4686  -76.5201 H         1 UNK         0.3020 
    107 H107      -74.8478   23.1557  -74.5655 H         1 UNK         0.1245 
    108 H108      -74.5477   24.5114  -72.6455 H         1 UNK         0.0781 
    109 H109      -75.7699   23.3534  -72.2477 H         1 UNK         0.0781 
    110 H110      -74.6865   26.8181  -72.8240 H         1 UNK         0.0836 
    111 H111      -75.1391   26.9238  -71.1433 H         1 UNK         0.0836 
    112 H112      -77.8008   23.6285  -74.4970 H         1 UNK         0.3022 
    113 H113      -78.2677   20.4161  -76.0129 H         1 UNK         0.0747 
    114 H114      -79.9078   20.1204  -74.1893 H         1 UNK         0.0793 
    115 H115      -78.2830   19.9580  -73.5436 H         1 UNK         0.0793 
    116 H116      -79.1860   21.4441  -73.2754 H         1 UNK         0.0793 
    117 H117      -80.3226   22.1121  -75.5089 H         1 UNK         0.3047 
    118 H118      -80.1379   24.4563  -78.1251 H         1 UNK         0.0822 
    119 H119      -82.1297   23.2345  -78.9549 H         1 UNK         0.0807 
    120 H120      -81.6837   21.8160  -78.0078 H         1 UNK         0.0807 
    121 H121      -80.6548   22.3561  -79.3240 H         1 UNK         0.0807 
    122 H122      -81.4199   25.1943  -76.5131 H         1 UNK         0.2946 
    123 H123      -83.8453   24.6380  -75.0310 H         1 UNK         0.1144 
    124 H124      -83.6480   24.4616  -72.5305 H         1 UNK         0.0793 
    125 H125      -82.1496   23.5522  -72.7196 H         1 UNK         0.0793 
    126 H126      -83.6663   22.8884  -73.3073 H         1 UNK         0.0793 
    127 H127      -82.8663   26.5884  -74.6581 H         1 UNK         0.2896 
@<TRIPOS>BOND
     1    1    2 1    
     2    1   67 1    
     3    1   68 1    
     4    1   69 1    
     5    2    3 2    
     6    2    4 am   BACKBONE|DICT|INTERRES
     7    4    5 1    
     8    4   70 1    
     9    5    6 1    
    10    5   65 1    
    11    5   71 1    
    12    6    7 1    
    13    6   72 1    
    14    6   73 1    
    15    7    8 1    
    16    8    9 1    
    17    8   74 1    
    18    8   75 1    
    19    9   10 ar   
    20    9   14 ar   
    21   10   11 ar   
    22   10   76 1    
    23   11   12 ar   
    24   11   48 1    
    25   12   13 ar   
    26   12   77 1    
    27   13   14 ar   
    28   13   15 1    
    29   14   78 1    
    30   15   16 1    
    31   15   79 1    
    32   15   80 1    
    33   16   17 1    
    34   17   18 1    
    35   17   81 1    
    36   17   82 1    
    37   18   19 1    
    38   18   22 1    
    39   18   83 1    
    40   19   20 am   BACKBONE|DICT|INTERRES
    41   19   21 2    
    42   20   84 1    
    43   20   85 1    
    44   22   23 am   BACKBONE|DICT|INTERRES
    45   22   86 1    
    46   23   24 2    
    47   23   25 1    
    48   25   26 1    
    49   25   27 1    
    50   25   87 1    
    51   26   88 1    
    52   26   89 1    
    53   26   90 1    
    54   27   28 am   BACKBONE|DICT|INTERRES
    55   27   91 1    
    56   28   29 2    
    57   28   30 1    
    58   30   31 1    
    59   30   32 1    
    60   30   92 1    
    61   31   93 1    
    62   31   94 1    
    63   31   95 1    
    64   32   33 am   BACKBONE|DICT|INTERRES
    65   32   96 1    
    66   33   34 2    
    67   33   35 1    
    68   35   36 1    
    69   35   37 1    
    70   35   97 1    
    71   36   98 1    
    72   36   99 1    
    73   36  100 1    
    74   37   38 am   BACKBONE|DICT|INTERRES
    75   37  101 1    
    76   38   39 2    
    77   38   40 1    
    78   40   41 1    
    79   40   42 1    
    80   40  102 1    
    81   41  103 1    
    82   41  104 1    
    83   41  105 1    
    84   42   43 am   BACKBONE|DICT|INTERRES
    85   42  106 1    
    86   43   44 2    
    87   43   45 1    
    88   45   46 1    
    89   45   49 1    
    90   45  107 1    
    91   46   47 1    
    92   46  108 1    
    93   46  109 1    
    94   47   48 1    
    95   48  110 1    
    96   48  111 1    
    97   49   50 am   BACKBONE|DICT|INTERRES
    98   49  112 1    
    99   50   51 2    
   100   50   52 1    
   101   52   53 1    
   102   52   54 1    
   103   52  113 1    
   104   53  114 1    
   105   53  115 1    
   106   53  116 1    
   107   54   55 am   BACKBONE|DICT|INTERRES
   108   54  117 1    
   109   55   56 2    
   110   55   57 1    
   111   57   58 1    
   112   57   59 1    
   113   57  118 1    
   114   58  119 1    
   115   58  120 1    
   116   58  121 1    
   117   59   60 am   BACKBONE|DICT|INTERRES
   118   59  122 1    
   119   60   61 2    
   120   60   62 1    
   121   62   63 1    
   122   62   64 1    
   123   62  123 1    
   124   63  124 1    
   125   63  125 1    
   126   63  126 1    
   127   64   65 am   BACKBONE|DICT|INTERRES
   128   64  127 1    
   129   65   66 2    
@<TRIPOS>SUBSTRUCTURE
     1 UNK         1 GROUP             0       ****    0 ROOT    
