@<TRIPOS>MOLECULE
3R135
127   129    1
SMALL
USER_CHARGES


@<TRIPOS>ATOM
      1 CA        -77.2109   26.9537  -72.1391 C.3       0 UNK        -0.1998 
      2 C         -78.5206   26.2807  -71.7690 C.2       0 UNK         0.4909 
      3 O         -78.5350   25.0773  -71.5060 O.2       0 UNK        -0.5240 
      4 N         -79.6229   27.0408  -71.7474 N.am      1 UNK        -0.4739 
      5 CA        -80.9691   26.5743  -71.3896 C.3       1 UNK         0.0864 
      6 C6        -81.8824   27.7260  -70.8948 C.3       11 UNK        -0.0881 
      7 S7        -81.1654   28.6517  -69.4935 S.3       11 UNK        -0.2682 
      8 C8        -81.0147   30.3278  -70.1898 C.3       11 UNK         0.0289 
      9 C9        -79.8794   30.4374  -71.1987 C.ar      11 UNK        -0.0687 
     10 C10       -80.1303   30.2944  -72.5676 C.ar      11 UNK        -0.0823 
     11 C11       -79.0991   30.4258  -73.5026 C.ar      11 UNK        -0.0830 
     12 C12       -77.8095   30.7340  -73.0519 C.ar      11 UNK        -0.1021 
     13 C13       -77.5454   30.8815  -71.6879 C.ar      11 UNK        -0.0753 
     14 C14       -78.5817   30.7226  -70.7642 C.ar      11 UNK        -0.0933 
     15 C15       -76.1425   31.2357  -71.2230 C.3       11 UNK         0.0166 
     16 S16       -75.1525   29.7410  -70.9370 S.3       11 UNK        -0.2615 
     17 C17       -73.4779   30.4591  -70.8104 C.3       11 UNK        -0.0865 
     18 CA        -72.6716   30.3542  -72.1403 C.3       10 UNK         0.0862 
     19 C         -71.2955   31.0831  -72.0632 C.2       10 UNK         0.5551 
     20 N         -70.2482   30.5886  -72.7120 N.am      10 UNK        -0.7319 
     21 O         -71.1799   32.1316  -71.4328 O.2       10 UNK        -0.5018 
     22 N         -72.6164   28.9823  -72.6780 N.am      10 UNK        -0.4509 
     23 C         -72.0915   27.9084  -72.0786 C.2       10 UNK         0.4899 
     24 O         -71.5001   27.9389  -70.9993 O.2       10 UNK        -0.4839 
     25 CA        -72.2626   26.5589  -72.7964 C.3       9 UNK         0.0222 
     26 CB        -73.7140   26.0583  -72.6842 C.3       9 UNK        -0.1966 
     27 N         -71.7924   26.5285  -74.1888 N.am      9 UNK        -0.4218 
     28 C         -72.2616   27.1791  -75.2649 C.2       9 UNK         0.5020 
     29 O         -73.1942   27.9831  -75.2373 O.2       9 UNK        -0.5274 
     30 CA        -71.5750   26.8718  -76.6033 C.3       8 UNK         0.0270 
     31 CB        -70.1185   26.3681  -76.4347 C.3       8 UNK        -0.1976 
     32 N         -72.4071   25.9048  -77.3206 N.am      8 UNK        -0.4313 
     33 C         -72.2017   25.4472  -78.5631 C.2       8 UNK         0.5041 
     34 O         -71.2705   25.8030  -79.2869 O.2       8 UNK        -0.5577 
     35 CA        -73.2146   24.4236  -79.1014 C.3       7 UNK         0.0284 
     36 CB        -73.1846   23.1125  -78.2961 C.3       7 UNK        -0.1958 
     37 N         -74.5686   24.9734  -79.1183 N.am      7 UNK        -0.4454 
     38 C         -75.0173   25.8557  -80.0225 C.2       7 UNK         0.5089 
     39 O         -74.3652   26.2348  -80.9960 O.2       7 UNK        -0.5125 
     40 CA        -76.4330   26.4183  -79.8074 C.3       6 UNK         0.0408 
     41 CB        -77.4651   25.6337  -80.6332 C.3       6 UNK        -0.1791 
     42 N         -76.8240   26.4222  -78.3951 N.am      6 UNK        -0.4762 
     43 C         -76.3546   27.3006  -77.4948 C.2       6 UNK         0.5007 
     44 O         -75.5744   28.2082  -77.7849 O.2       6 UNK        -0.5032 
     45 CA        -76.8143   27.1263  -76.0271 C.3       5 UNK         0.0783 
     46 C46       -78.1460   27.8747  -75.7461 C.3       11 UNK        -0.0857 
     47 S47       -78.0559   29.6773  -76.0229 S.3       11 UNK        -0.2512 
     48 C48       -79.4252   30.2996  -74.9901 C.3       11 UNK         0.0225 
     49 N         -76.9261   25.7112  -75.6496 N.am      5 UNK        -0.4615 
     50 C         -75.9134   24.8285  -75.6411 C.2       4 UNK         0.5053 
     51 O         -74.7456   25.1261  -75.8847 O.2       4 UNK        -0.5105 
     52 CA        -76.2585   23.3476  -75.3858 C.3       4 UNK         0.0263 
     53 CB        -76.1075   23.0070  -73.8955 C.3       4 UNK        -0.1981 
     54 N         -77.6041   22.9761  -75.8273 N.am      4 UNK        -0.4224 
     55 C         -78.0824   23.1205  -77.0715 C.2       3 UNK         0.4895 
     56 O         -77.3868   23.4626  -78.0271 O.2       3 UNK        -0.5091 
     57 CA        -79.5957   22.9169  -77.2825 C.3       3 UNK         0.0250 
     58 CB        -79.8573   21.5968  -78.0251 C.3       3 UNK        -0.1996 
     59 N         -80.4125   22.9514  -76.0597 N.am      3 UNK        -0.4254 
     60 C         -80.4788   23.9547  -75.1703 C.2       2 UNK         0.5004 
     61 O         -79.8198   24.9942  -75.2704 O.2       2 UNK        -0.5226 
     62 CA        -81.4017   23.7325  -73.9567 C.3       2 UNK         0.0269 
     63 CB        -81.3561   22.2817  -73.4345 C.3       2 UNK        -0.1926 
     64 N         -81.0210   24.6214  -72.8604 N.am      2 UNK        -0.4687 
     65 C         -81.6095   25.7804  -72.5509 C.2       1 UNK         0.5165 
     66 O         -82.5979   26.2230  -73.1407 O.2       1 UNK        -0.5079 
     67 H67       -77.3551   27.9873  -72.4499 H         1 UNK         0.0900 
     68 H68       -76.5328   26.9468  -71.2865 H         1 UNK         0.0900 
     69 H69       -76.7372   26.4152  -72.9566 H         1 UNK         0.0900 
     70 H70       -79.5495   28.0276  -71.9549 H         1 UNK         0.2959 
     71 H71       -80.8692   25.8739  -70.5568 H         1 UNK         0.1079 
     72 H72       -82.8404   27.3226  -70.5609 H         1 UNK         0.0837 
     73 H73       -82.1220   28.4098  -71.7090 H         1 UNK         0.0837 
     74 H74       -81.9622   30.6243  -70.6425 H         1 UNK         0.0685 
     75 H75       -80.8424   31.0287  -69.3716 H         1 UNK         0.0685 
     76 H76       -81.1369   30.0979  -72.9104 H         1 UNK         0.1434 
     77 H77       -77.0033   30.8690  -73.7595 H         1 UNK         0.1329 
     78 H78       -78.3816   30.8377  -69.7075 H         1 UNK         0.1335 
     79 H79       -76.1823   31.8258  -70.3061 H         1 UNK         0.0680 
     80 H80       -75.6524   31.8594  -71.9725 H         1 UNK         0.0680 
     81 H81       -72.9482   29.9510  -70.0033 H         1 UNK         0.1032 
     82 H82       -73.5647   31.4999  -70.4931 H         1 UNK         0.1032 
     83 H83       -73.2288   30.9186  -72.8888 H         1 UNK         0.0461 
     84 H84       -69.3641   31.0703  -72.6675 H         1 UNK         0.3453 
     85 H85       -70.3352   29.7329  -73.2358 H         1 UNK         0.3453 
     86 H86       -73.0384   28.8390  -73.5928 H         1 UNK         0.2984 
     87 H87       -71.6350   25.8428  -72.2634 H         1 UNK         0.0554 
     88 H88       -74.0401   26.0264  -71.6438 H         1 UNK         0.0847 
     89 H89       -73.8111   25.0527  -73.0888 H         1 UNK         0.0847 
     90 H90       -74.4065   26.7037  -73.2238 H         1 UNK         0.0847 
     91 H91       -71.0034   25.9177  -74.3490 H         1 UNK         0.3141 
     92 H92       -71.5586   27.8002  -77.1773 H         1 UNK         0.0743 
     93 H93       -70.0761   25.3544  -76.0346 H         1 UNK         0.0784 
     94 H94       -69.5865   26.3640  -77.3856 H         1 UNK         0.0784 
     95 H95       -69.5479   27.0185  -75.7699 H         1 UNK         0.0784 
     96 H96       -73.2402   25.5991  -76.8141 H         1 UNK         0.3213 
     97 H97       -72.9305   24.1831  -80.1285 H         1 UNK         0.0855 
     98 H98       -73.4458   23.2618  -77.2490 H         1 UNK         0.0814 
     99 H99       -72.1887   22.6683  -78.3196 H         1 UNK         0.0814 
    100 H100      -73.8759   22.3784  -78.7104 H         1 UNK         0.0814 
    101 H101      -75.1820   24.7217  -78.3553 H         1 UNK         0.3105 
    102 H102      -76.4370   27.4498  -80.1665 H         1 UNK         0.0547 
    103 H103      -77.2367   25.6986  -81.6978 H         1 UNK         0.0837 
    104 H104      -77.4792   24.5756  -80.3725 H         1 UNK         0.0837 
    105 H105      -78.4713   26.0289  -80.4943 H         1 UNK         0.0837 
    106 H106      -77.4059   25.6547  -78.0827 H         1 UNK         0.3020 
    107 H107      -76.0341   27.5652  -75.3998 H         1 UNK         0.1245 
    108 H108      -78.4528   27.7037  -74.7137 H         1 UNK         0.0781 
    109 H109      -78.9498   27.4719  -76.3654 H         1 UNK         0.0781 
    110 H110      -80.2944   29.6567  -75.1391 H         1 UNK         0.0836 
    111 H111      -79.7075   31.2869  -75.3577 H         1 UNK         0.0836 
    112 H112      -77.8672   25.3770  -75.4597 H         1 UNK         0.3022 
    113 H113      -75.5506   22.7401  -75.9530 H         1 UNK         0.0747 
    114 H114      -76.3367   21.9591  -73.7011 H         1 UNK         0.0793 
    115 H115      -75.0843   23.1749  -73.5601 H         1 UNK         0.0793 
    116 H116      -76.7631   23.6162  -73.2713 H         1 UNK         0.0793 
    117 H117      -78.2518   22.6915  -75.1080 H         1 UNK         0.3047 
    118 H118      -79.9345   23.7384  -77.9171 H         1 UNK         0.0822 
    119 H119      -80.9100   21.4891  -78.2874 H         1 UNK         0.0807 
    120 H120      -79.5685   20.7325  -77.4257 H         1 UNK         0.0807 
    121 H121      -79.2893   21.5520  -78.9558 H         1 UNK         0.0807 
    122 H122      -80.9804   22.1339  -75.8888 H         1 UNK         0.2946 
    123 H123      -82.4213   23.9535  -74.2808 H         1 UNK         0.1144 
    124 H124      -81.7669   21.5771  -74.1583 H         1 UNK         0.0793 
    125 H125      -81.9494   22.1738  -72.5261 H         1 UNK         0.0793 
    126 H126      -80.3381   21.9658  -73.2018 H         1 UNK         0.0793 
    127 H127      -80.1464   24.4136  -72.3862 H         1 UNK         0.2896 
@<TRIPOS>BOND
     1    1    2 1    
     2    1   67 1    
     3    1   68 1    
     4    1   69 1    
     5    2    3 2    
     6    2    4 am   BACKBONE|DICT|INTERRES
     7    4    5 1    
     8    4   70 1    
     9    5    6 1    
    10    5   65 1    
    11    5   71 1    
    12    6    7 1    
    13    6   72 1    
    14    6   73 1    
    15    7    8 1    
    16    8    9 1    
    17    8   74 1    
    18    8   75 1    
    19    9   10 ar   
    20    9   14 ar   
    21   10   11 ar   
    22   10   76 1    
    23   11   12 ar   
    24   11   48 1    
    25   12   13 ar   
    26   12   77 1    
    27   13   14 ar   
    28   13   15 1    
    29   14   78 1    
    30   15   16 1    
    31   15   79 1    
    32   15   80 1    
    33   16   17 1    
    34   17   18 1    
    35   17   81 1    
    36   17   82 1    
    37   18   19 1    
    38   18   22 1    
    39   18   83 1    
    40   19   20 am   BACKBONE|DICT|INTERRES
    41   19   21 2    
    42   20   84 1    
    43   20   85 1    
    44   22   23 am   BACKBONE|DICT|INTERRES
    45   22   86 1    
    46   23   24 2    
    47   23   25 1    
    48   25   26 1    
    49   25   27 1    
    50   25   87 1    
    51   26   88 1    
    52   26   89 1    
    53   26   90 1    
    54   27   28 am   BACKBONE|DICT|INTERRES
    55   27   91 1    
    56   28   29 2    
    57   28   30 1    
    58   30   31 1    
    59   30   32 1    
    60   30   92 1    
    61   31   93 1    
    62   31   94 1    
    63   31   95 1    
    64   32   33 am   BACKBONE|DICT|INTERRES
    65   32   96 1    
    66   33   34 2    
    67   33   35 1    
    68   35   36 1    
    69   35   37 1    
    70   35   97 1    
    71   36   98 1    
    72   36   99 1    
    73   36  100 1    
    74   37   38 am   BACKBONE|DICT|INTERRES
    75   37  101 1    
    76   38   39 2    
    77   38   40 1    
    78   40   41 1    
    79   40   42 1    
    80   40  102 1    
    81   41  103 1    
    82   41  104 1    
    83   41  105 1    
    84   42   43 am   BACKBONE|DICT|INTERRES
    85   42  106 1    
    86   43   44 2    
    87   43   45 1    
    88   45   46 1    
    89   45   49 1    
    90   45  107 1    
    91   46   47 1    
    92   46  108 1    
    93   46  109 1    
    94   47   48 1    
    95   48  110 1    
    96   48  111 1    
    97   49   50 am   BACKBONE|DICT|INTERRES
    98   49  112 1    
    99   50   51 2    
   100   50   52 1    
   101   52   53 1    
   102   52   54 1    
   103   52  113 1    
   104   53  114 1    
   105   53  115 1    
   106   53  116 1    
   107   54   55 am   BACKBONE|DICT|INTERRES
   108   54  117 1    
   109   55   56 2    
   110   55   57 1    
   111   57   58 1    
   112   57   59 1    
   113   57  118 1    
   114   58  119 1    
   115   58  120 1    
   116   58  121 1    
   117   59   60 am   BACKBONE|DICT|INTERRES
   118   59  122 1    
   119   60   61 2    
   120   60   62 1    
   121   62   63 1    
   122   62   64 1    
   123   62  123 1    
   124   63  124 1    
   125   63  125 1    
   126   63  126 1    
   127   64   65 am   BACKBONE|DICT|INTERRES
   128   64  127 1    
   129   65   66 2    
@<TRIPOS>SUBSTRUCTURE
     1 UNK         1 GROUP             0       ****    0 ROOT    
