@<TRIPOS>MOLECULE
3R135
127   129    1
SMALL
USER_CHARGES


@<TRIPOS>ATOM
      1 CA        -78.3333   30.2146  -76.0905 C.3       0 UNK        -0.1998 
      2 C         -78.7736   29.2021  -75.0445 C.2       0 UNK         0.4909 
      3 O         -78.0194   28.2827  -74.7356 O.2       0 UNK        -0.5240 
      4 N         -79.9822   29.3708  -74.4935 N.am      1 UNK        -0.4739 
      5 CA        -80.5925   28.4406  -73.5405 C.3       1 UNK         0.0864 
      6 C6        -81.6105   29.1727  -72.6276 C.3       11 UNK        -0.0881 
      7 S7        -81.9695   28.2631  -71.0851 S.3       11 UNK        -0.2682 
      8 C8        -80.8203   29.0472  -69.9052 C.3       11 UNK         0.0289 
      9 C9        -79.3716   28.7659  -70.2737 C.ar      11 UNK        -0.0687 
     10 C10       -78.8404   27.4871  -70.0852 C.ar      11 UNK        -0.0823 
     11 C11       -77.5394   27.1928  -70.5000 C.ar      11 UNK        -0.0830 
     12 C12       -76.7561   28.1993  -71.0752 C.ar      11 UNK        -0.1021 
     13 C13       -77.2730   29.4840  -71.2636 C.ar      11 UNK        -0.0753 
     14 C14       -78.5799   29.7639  -70.8516 C.ar      11 UNK        -0.0933 
     15 C15       -76.4430   30.5528  -71.9623 C.3       11 UNK         0.0166 
     16 S16       -74.9936   31.0459  -70.9758 S.3       11 UNK        -0.2615 
     17 C17       -73.6076   30.2662  -71.8829 C.3       11 UNK        -0.0865 
     18 CA        -72.8236   31.2771  -72.7665 C.3       10 UNK         0.0862 
     19 C         -71.9072   32.2159  -71.9210 C.2       10 UNK         0.5551 
     20 N         -70.5916   32.0314  -71.9272 N.am      10 UNK        -0.7319 
     21 O         -72.3900   33.1391  -71.2707 O.2       10 UNK        -0.5018 
     22 N         -72.1171   30.5970  -73.8686 N.am      10 UNK        -0.4509 
     23 C         -71.7094   31.2143  -74.9881 C.2       10 UNK         0.4899 
     24 O         -71.9833   32.3850  -75.2557 O.2       10 UNK        -0.4839 
     25 CA        -70.8245   30.4251  -75.9732 C.3       9 UNK         0.0222 
     26 CB        -69.3789   30.9496  -75.9259 C.3       9 UNK        -0.1966 
     27 N         -70.8087   28.9753  -75.7538 N.am      9 UNK        -0.4218 
     28 C         -71.7958   28.1410  -76.1033 C.2       9 UNK         0.5020 
     29 O         -72.8576   28.5105  -76.6099 O.2       9 UNK        -0.5274 
     30 CA        -71.5471   26.6534  -75.8076 C.3       8 UNK         0.0270 
     31 CB        -71.7402   26.3626  -74.3082 C.3       8 UNK        -0.1976 
     32 N         -72.4674   25.8152  -76.5765 N.am      8 UNK        -0.4313 
     33 C         -72.1988   25.2695  -77.7712 C.2       8 UNK         0.5041 
     34 O         -71.1047   25.3640  -78.3305 O.2       8 UNK        -0.5577 
     35 CA        -73.3186   24.4672  -78.4673 C.3       7 UNK         0.0284 
     36 CB        -73.1178   22.9594  -78.2429 C.3       7 UNK        -0.1958 
     37 N         -74.6619   24.8356  -78.0198 N.am      7 UNK        -0.4454 
     38 C         -75.2821   25.9851  -78.3185 C.2       7 UNK         0.5089 
     39 O         -74.8532   26.7943  -79.1417 O.2       7 UNK        -0.5125 
     40 CA        -76.5933   26.2997  -77.5685 C.3       6 UNK         0.0408 
     41 CB        -77.8018   26.1656  -78.5085 C.3       6 UNK        -0.1791 
     42 N         -76.8414   25.4971  -76.3644 N.am      6 UNK        -0.4762 
     43 C         -76.0481   25.4170  -75.2856 C.2       6 UNK         0.5007 
     44 O         -74.9462   25.9556  -75.2048 O.2       6 UNK        -0.5032 
     45 CA        -76.5499   24.5678  -74.1057 C.3       5 UNK         0.0783 
     46 C46       -77.3920   25.4506  -73.1623 C.3       11 UNK        -0.0857 
     47 S47       -77.7945   24.6453  -71.5770 S.3       11 UNK        -0.2512 
     48 C48       -77.0011   25.7728  -70.3795 C.3       11 UNK         0.0225 
     49 N         -77.2810   23.3851  -74.5666 N.am      5 UNK        -0.4615 
     50 C         -76.7142   22.3061  -75.1219 C.2       4 UNK         0.5053 
     51 O         -75.5000   22.1771  -75.2776 O.2       4 UNK        -0.5105 
     52 CA        -77.6595   21.1840  -75.5874 C.3       4 UNK         0.0263 
     53 CB        -77.9232   20.1957  -74.4400 C.3       4 UNK        -0.1981 
     54 N         -78.9369   21.6946  -76.0918 N.am      4 UNK        -0.4224 
     55 C         -79.0914   22.3131  -77.2716 C.2       3 UNK         0.4895 
     56 O         -78.1917   22.4392  -78.1023 O.2       3 UNK        -0.5091 
     57 CA        -80.4770   22.9235  -77.5626 C.3       3 UNK         0.0250 
     58 CB        -81.3765   21.9015  -78.2761 C.3       3 UNK        -0.1996 
     59 N         -81.1705   23.4422  -76.3741 N.am      3 UNK        -0.4254 
     60 C         -80.6886   24.4054  -75.5761 C.2       2 UNK         0.5004 
     61 O         -79.5873   24.9294  -75.7463 O.2       2 UNK        -0.5226 
     62 CA        -81.5442   24.7919  -74.3552 C.3       2 UNK         0.0269 
     63 CB        -81.4793   23.6874  -73.2861 C.3       2 UNK        -0.1926 
     64 N         -81.1024   26.0491  -73.7440 N.am      2 UNK        -0.4687 
     65 C         -81.2325   27.2606  -74.3001 C.2       1 UNK         0.5165 
     66 O         -81.8483   27.4702  -75.3495 O.2       1 UNK        -0.5079 
     67 H67       -79.0891   30.9809  -76.2617 H         1 UNK         0.0900 
     68 H68       -78.1378   29.7113  -77.0371 H         1 UNK         0.0900 
     69 H69       -77.4154   30.7070  -75.7705 H         1 UNK         0.0900 
     70 H70       -80.5775   30.1190  -74.8183 H         1 UNK         0.2959 
     71 H71       -79.7909   28.0416  -72.9150 H         1 UNK         0.1079 
     72 H72       -81.2297   30.1584  -72.3559 H         1 UNK         0.0837 
     73 H73       -82.5483   29.3587  -73.1550 H         1 UNK         0.0837 
     74 H74       -81.0138   30.1203  -69.8637 H         1 UNK         0.0685 
     75 H75       -81.0205   28.6605  -68.9049 H         1 UNK         0.0685 
     76 H76       -79.4568   26.7072  -69.6585 H         1 UNK         0.1434 
     77 H77       -75.7527   27.9762  -71.4101 H         1 UNK         0.1329 
     78 H78       -78.9938   30.7500  -71.0116 H         1 UNK         0.1335 
     79 H79       -76.1410   30.1941  -72.9473 H         1 UNK         0.0680 
     80 H80       -77.0472   31.4430  -72.1437 H         1 UNK         0.0680 
     81 H81       -74.0050   29.4573  -72.4976 H         1 UNK         0.1032 
     82 H82       -72.9431   29.7830  -71.1641 H         1 UNK         0.1032 
     83 H83       -73.5653   31.9262  -73.2372 H         1 UNK         0.0461 
     84 H84       -70.0052   32.6484  -71.3875 H         1 UNK         0.3453 
     85 H85       -70.1800   31.2843  -72.4619 H         1 UNK         0.3453 
     86 H86       -71.8458   29.6378  -73.7166 H         1 UNK         0.2984 
     87 H87       -71.2157   30.6132  -76.9754 H         1 UNK         0.0554 
     88 H88       -68.7556   30.4666  -76.6788 H         1 UNK         0.0847 
     89 H89       -68.9184   30.7847  -74.9511 H         1 UNK         0.0847 
     90 H90       -69.3444   32.0221  -76.1234 H         1 UNK         0.0847 
     91 H91       -69.9725   28.5901  -75.3373 H         1 UNK         0.3141 
     92 H92       -70.5171   26.4107  -76.0776 H         1 UNK         0.0743 
     93 H93       -70.9981   26.8872  -73.7056 H         1 UNK         0.0784 
     94 H94       -72.7239   26.6759  -73.9566 H         1 UNK         0.0784 
     95 H95       -71.6332   25.2990  -74.0943 H         1 UNK         0.0784 
     96 H96       -73.4187   25.7750  -76.2139 H         1 UNK         0.3213 
     97 H97       -73.2478   24.6673  -79.5386 H         1 UNK         0.0855 
     98 H98       -72.1328   22.6411  -78.5874 H         1 UNK         0.0814 
     99 H99       -73.8565   22.3742  -78.7909 H         1 UNK         0.0814 
    100 H100      -73.1960   22.6947  -77.1873 H         1 UNK         0.0814 
    101 H101      -75.1010   24.2301  -77.3405 H         1 UNK         0.3105 
    102 H102      -76.5292   27.3405  -77.2451 H         1 UNK         0.0547 
    103 H103      -77.6802   26.7873  -79.3964 H         1 UNK         0.0837 
    104 H104      -77.9355   25.1369  -78.8447 H         1 UNK         0.0837 
    105 H105      -78.7227   26.4805  -78.0167 H         1 UNK         0.0837 
    106 H106      -77.7702   25.0889  -76.2839 H         1 UNK         0.3020 
    107 H107      -75.6662   24.2297  -73.5591 H         1 UNK         0.1245 
    108 H108      -78.3233   25.7524  -73.6397 H         1 UNK         0.0781 
    109 H109      -76.8564   26.3789  -72.9705 H         1 UNK         0.0781 
    110 H110      -75.9204   25.7525  -70.5294 H         1 UNK         0.0836 
    111 H111      -77.1774   25.4015  -69.3690 H         1 UNK         0.0836 
    112 H112      -78.2874   23.4483  -74.5298 H         1 UNK         0.3022 
    113 H113      -77.1605   20.6436  -76.3950 H         1 UNK         0.0747 
    114 H114      -78.5363   19.3573  -74.7712 H         1 UNK         0.0793 
    115 H115      -76.9879   19.7810  -74.0611 H         1 UNK         0.0793 
    116 H116      -78.4307   20.6736  -73.6009 H         1 UNK         0.0793 
    117 H117      -79.7374   21.6171  -75.4819 H         1 UNK         0.3047 
    118 H118      -80.3186   23.7671  -78.2380 H         1 UNK         0.0822 
    119 H119      -82.3203   22.3506  -78.5860 H         1 UNK         0.0807 
    120 H120      -81.6035   21.0464  -77.6381 H         1 UNK         0.0807 
    121 H121      -80.8930   21.5174  -79.1757 H         1 UNK         0.0807 
    122 H122      -82.0764   23.0443  -76.1698 H         1 UNK         0.2946 
    123 H123      -82.5780   24.9144  -74.6862 H         1 UNK         0.1144 
    124 H124      -82.0905   23.9402  -72.4192 H         1 UNK         0.0793 
    125 H125      -80.4592   23.5217  -72.9369 H         1 UNK         0.0793 
    126 H126      -81.8513   22.7373  -73.6713 H         1 UNK         0.0793 
    127 H127      -80.5868   25.9683  -72.8797 H         1 UNK         0.2896 
@<TRIPOS>BOND
     1    1    2 1    
     2    1   67 1    
     3    1   68 1    
     4    1   69 1    
     5    2    3 2    
     6    2    4 am   BACKBONE|DICT|INTERRES
     7    4    5 1    
     8    4   70 1    
     9    5    6 1    
    10    5   65 1    
    11    5   71 1    
    12    6    7 1    
    13    6   72 1    
    14    6   73 1    
    15    7    8 1    
    16    8    9 1    
    17    8   74 1    
    18    8   75 1    
    19    9   10 ar   
    20    9   14 ar   
    21   10   11 ar   
    22   10   76 1    
    23   11   12 ar   
    24   11   48 1    
    25   12   13 ar   
    26   12   77 1    
    27   13   14 ar   
    28   13   15 1    
    29   14   78 1    
    30   15   16 1    
    31   15   79 1    
    32   15   80 1    
    33   16   17 1    
    34   17   18 1    
    35   17   81 1    
    36   17   82 1    
    37   18   19 1    
    38   18   22 1    
    39   18   83 1    
    40   19   20 am   BACKBONE|DICT|INTERRES
    41   19   21 2    
    42   20   84 1    
    43   20   85 1    
    44   22   23 am   BACKBONE|DICT|INTERRES
    45   22   86 1    
    46   23   24 2    
    47   23   25 1    
    48   25   26 1    
    49   25   27 1    
    50   25   87 1    
    51   26   88 1    
    52   26   89 1    
    53   26   90 1    
    54   27   28 am   BACKBONE|DICT|INTERRES
    55   27   91 1    
    56   28   29 2    
    57   28   30 1    
    58   30   31 1    
    59   30   32 1    
    60   30   92 1    
    61   31   93 1    
    62   31   94 1    
    63   31   95 1    
    64   32   33 am   BACKBONE|DICT|INTERRES
    65   32   96 1    
    66   33   34 2    
    67   33   35 1    
    68   35   36 1    
    69   35   37 1    
    70   35   97 1    
    71   36   98 1    
    72   36   99 1    
    73   36  100 1    
    74   37   38 am   BACKBONE|DICT|INTERRES
    75   37  101 1    
    76   38   39 2    
    77   38   40 1    
    78   40   41 1    
    79   40   42 1    
    80   40  102 1    
    81   41  103 1    
    82   41  104 1    
    83   41  105 1    
    84   42   43 am   BACKBONE|DICT|INTERRES
    85   42  106 1    
    86   43   44 2    
    87   43   45 1    
    88   45   46 1    
    89   45   49 1    
    90   45  107 1    
    91   46   47 1    
    92   46  108 1    
    93   46  109 1    
    94   47   48 1    
    95   48  110 1    
    96   48  111 1    
    97   49   50 am   BACKBONE|DICT|INTERRES
    98   49  112 1    
    99   50   51 2    
   100   50   52 1    
   101   52   53 1    
   102   52   54 1    
   103   52  113 1    
   104   53  114 1    
   105   53  115 1    
   106   53  116 1    
   107   54   55 am   BACKBONE|DICT|INTERRES
   108   54  117 1    
   109   55   56 2    
   110   55   57 1    
   111   57   58 1    
   112   57   59 1    
   113   57  118 1    
   114   58  119 1    
   115   58  120 1    
   116   58  121 1    
   117   59   60 am   BACKBONE|DICT|INTERRES
   118   59  122 1    
   119   60   61 2    
   120   60   62 1    
   121   62   63 1    
   122   62   64 1    
   123   62  123 1    
   124   63  124 1    
   125   63  125 1    
   126   63  126 1    
   127   64   65 am   BACKBONE|DICT|INTERRES
   128   64  127 1    
   129   65   66 2    
@<TRIPOS>SUBSTRUCTURE
     1 UNK         1 GROUP             0       ****    0 ROOT    
