@<TRIPOS>MOLECULE
3R135
127   129    1
SMALL
USER_CHARGES


@<TRIPOS>ATOM
      1 CA        -80.9182   29.8341  -76.5211 C.3       0 UNK        -0.1998 
      2 C         -80.6136   28.9019  -75.3590 C.2       0 UNK         0.4909 
      3 O         -79.5520   28.2821  -75.3348 O.2       0 UNK        -0.5240 
      4 N         -81.5385   28.7879  -74.3981 N.am      1 UNK        -0.4739 
      5 CA        -81.4177   27.9373  -73.2077 C.3       1 UNK         0.0864 
      6 C6        -82.1599   28.5411  -71.9842 C.3       11 UNK        -0.0881 
      7 S7        -81.6280   30.2448  -71.5829 S.3       11 UNK        -0.2682 
      8 C8        -80.6157   30.0167  -70.0848 C.3       11 UNK         0.0289 
      9 C9        -79.2329   29.4723  -70.4116 C.ar      11 UNK        -0.0687 
     10 C10       -78.9655   28.1068  -70.2815 C.ar      11 UNK        -0.0823 
     11 C11       -77.7055   27.6008  -70.6103 C.ar      11 UNK        -0.0830 
     12 C12       -76.7038   28.4711  -71.0468 C.ar      11 UNK        -0.1021 
     13 C13       -76.9518   29.8407  -71.1714 C.ar      11 UNK        -0.0753 
     14 C14       -78.2212   30.3350  -70.8505 C.ar      11 UNK        -0.0933 
     15 C15       -75.8688   30.7748  -71.7016 C.3       11 UNK         0.0166 
     16 S16       -74.2673   30.5350  -70.8630 S.3       11 UNK        -0.2615 
     17 C17       -73.2278   31.7907  -71.6873 C.3       11 UNK        -0.0865 
     18 CA        -72.1025   31.2255  -72.5972 C.3       10 UNK         0.0862 
     19 C         -71.0330   30.4109  -71.8153 C.2       10 UNK         0.5551 
     20 N         -70.1959   31.0826  -71.0357 N.am      10 UNK        -0.7319 
     21 O         -70.9643   29.1850  -71.8889 O.2       10 UNK        -0.5018 
     22 N         -72.6394   30.4927  -73.7543 N.am      10 UNK        -0.4509 
     23 C         -72.0301   30.4302  -74.9450 C.2       10 UNK         0.4899 
     24 O         -70.9929   31.0397  -75.2158 O.2       10 UNK        -0.4839 
     25 CA        -72.7066   29.5486  -76.0113 C.3       9 UNK         0.0222 
     26 CB        -72.1660   29.8150  -77.4323 C.3       9 UNK        -0.1966 
     27 N         -72.6356   28.1173  -75.6994 N.am      9 UNK        -0.4218 
     28 C         -71.5405   27.3653  -75.5033 C.2       9 UNK         0.5020 
     29 O         -70.3855   27.7932  -75.5087 O.2       9 UNK        -0.5274 
     30 CA        -71.7756   25.8568  -75.3035 C.3       8 UNK         0.0270 
     31 CB        -72.2781   25.5600  -73.8805 C.3       8 UNK        -0.1976 
     32 N         -72.7021   25.2926  -76.2914 N.am      8 UNK        -0.4313 
     33 C         -72.4480   25.1908  -77.6055 C.2       8 UNK         0.5041 
     34 O         -71.3703   25.4918  -78.1206 O.2       8 UNK        -0.5577 
     35 CA        -73.5862   24.6760  -78.5055 C.3       7 UNK         0.0284 
     36 CB        -73.6473   23.1401  -78.4967 C.3       7 UNK        -0.1958 
     37 N         -74.8891   25.2312  -78.1330 N.am      7 UNK        -0.4454 
     38 C         -75.2377   26.5154  -78.3023 C.2       7 UNK         0.5089 
     39 O         -74.5417   27.3428  -78.8902 O.2       7 UNK        -0.5125 
     40 CA        -76.5752   26.9646  -77.6893 C.3       6 UNK         0.0408 
     41 CB        -77.7303   26.7552  -78.6799 C.3       6 UNK        -0.1791 
     42 N         -76.8829   26.2825  -76.4320 N.am      6 UNK        -0.4762 
     43 C         -76.1720   26.3974  -75.3014 C.2       6 UNK         0.5007 
     44 O         -75.1909   27.1302  -75.1804 O.2       6 UNK        -0.5032 
     45 CA        -76.5977   25.5046  -74.1217 C.3       5 UNK         0.0783 
     46 C46       -77.7987   26.1307  -73.3892 C.3       11 UNK        -0.0857 
     47 S47       -78.3012   25.2136  -71.8914 S.3       11 UNK        -0.2512 
     48 C48       -77.4359   26.1056  -70.5586 C.3       11 UNK         0.0225 
     49 N         -76.8772   24.1378  -74.5640 N.am      5 UNK        -0.4615 
     50 C         -75.9641   23.2898  -75.0499 C.2       4 UNK         0.5053 
     51 O         -74.7673   23.5583  -75.1472 O.2       4 UNK        -0.5105 
     52 CA        -76.4844   21.9289  -75.5414 C.3       4 UNK         0.0263 
     53 CB        -76.5697   20.9323  -74.3749 C.3       4 UNK        -0.1981 
     54 N         -77.7917   22.0305  -76.1985 N.am      4 UNK        -0.4224 
     55 C         -77.9992   22.6433  -77.3734 C.2       3 UNK         0.4895 
     56 O         -77.1026   23.1501  -78.0482 O.2       3 UNK        -0.5091 
     57 CA        -79.4606   22.7487  -77.8495 C.3       3 UNK         0.0250 
     58 CB        -79.9143   21.4364  -78.5090 C.3       3 UNK        -0.1996 
     59 N         -80.4006   23.1206  -76.7820 N.am      3 UNK        -0.4254 
     60 C         -80.3334   24.2684  -76.0932 C.2       2 UNK         0.5004 
     61 O         -79.4677   25.1223  -76.2958 O.2       2 UNK        -0.5226 
     62 CA        -81.3620   24.4876  -74.9723 C.3       2 UNK         0.0269 
     63 CB        -81.1632   23.4470  -73.8488 C.3       2 UNK        -0.1926 
     64 N         -81.1790   25.8493  -74.4664 N.am      2 UNK        -0.4687 
     65 C         -81.8899   26.5021  -73.5411 C.2       1 UNK         0.5165 
     66 O         -82.8895   26.0324  -72.9941 O.2       1 UNK        -0.5079 
     67 H67       -80.9102   29.2779  -77.4581 H         1 UNK         0.0900 
     68 H68       -81.8920   30.3120  -76.4165 H         1 UNK         0.0900 
     69 H69       -80.1608   30.6150  -76.5818 H         1 UNK         0.0900 
     70 H70       -82.3995   29.3108  -74.4713 H         1 UNK         0.2959 
     71 H71       -80.3626   27.8633  -72.9327 H         1 UNK         0.1079 
     72 H72       -82.0256   27.9051  -71.1075 H         1 UNK         0.0837 
     73 H73       -83.2353   28.5704  -72.1695 H         1 UNK         0.0837 
     74 H74       -81.1357   29.3656  -69.3803 H         1 UNK         0.0685 
     75 H75       -80.5134   30.9806  -69.5841 H         1 UNK         0.0685 
     76 H76       -79.7442   27.4311  -69.9549 H         1 UNK         0.1434 
     77 H77       -75.7340   28.0778  -71.3196 H         1 UNK         0.1329 
     78 H78       -78.4320   31.3903  -70.9587 H         1 UNK         0.1335 
     79 H79       -76.1736   31.8160  -71.5841 H         1 UNK         0.0680 
     80 H80       -75.7463   30.6004  -72.7714 H         1 UNK         0.0680 
     81 H81       -72.7942   32.4226  -70.9103 H         1 UNK         0.1032 
     82 H82       -73.8610   32.4597  -72.2720 H         1 UNK         0.1032 
     83 H83       -71.5780   32.0999  -72.9886 H         1 UNK         0.0461 
     84 H84       -69.5005   30.5733  -70.5128 H         1 UNK         0.3453 
     85 H85       -70.2387   32.0872  -70.9637 H         1 UNK         0.3453 
     86 H86       -73.4492   29.9162  -73.5797 H         1 UNK         0.2984 
     87 H87       -73.7664   29.8086  -76.0121 H         1 UNK         0.0554 
     88 H88       -72.2755   30.8664  -77.7009 H         1 UNK         0.0847 
     89 H89       -72.7072   29.2323  -78.1773 H         1 UNK         0.0847 
     90 H90       -71.1081   29.5652  -77.5193 H         1 UNK         0.0847 
     91 H91       -73.5414   27.6565  -75.6075 H         1 UNK         0.3141 
     92 H92       -70.8148   25.3533  -75.4297 H         1 UNK         0.0743 
     93 H93       -71.5823   25.9470  -73.1346 H         1 UNK         0.0784 
     94 H94       -73.2480   26.0171  -73.6860 H         1 UNK         0.0784 
     95 H95       -72.3745   24.4874  -73.7101 H         1 UNK         0.0784 
     96 H96       -73.5872   24.9380  -75.9405 H         1 UNK         0.3213 
     97 H97       -73.3685   24.9955  -79.5271 H         1 UNK         0.0855 
     98 H98       -73.8500   22.7452  -77.5017 H         1 UNK         0.0814 
     99 H99       -72.7004   22.7125  -78.8286 H         1 UNK         0.0814 
    100 H100      -74.4234   22.7702  -79.1671 H         1 UNK         0.0814 
    101 H101      -75.5612   24.5993  -77.7122 H         1 UNK         0.3105 
    102 H102      -76.5005   28.0327  -77.4750 H         1 UNK         0.0547 
    103 H103      -78.6688   27.1363  -78.2761 H         1 UNK         0.0837 
    104 H104      -77.8729   25.7001  -78.9156 H         1 UNK         0.0837 
    105 H105      -77.5417   27.2791  -79.6177 H         1 UNK         0.0837 
    106 H106      -77.7285   25.7141  -76.4198 H         1 UNK         0.3020 
    107 H107      -75.7560   25.4655  -73.4267 H         1 UNK         0.1245 
    108 H108      -78.6546   26.1500  -74.0553 H         1 UNK         0.0781 
    109 H109      -77.6097   27.1783  -73.1627 H         1 UNK         0.0781 
    110 H110      -76.3666   25.9003  -70.6302 H         1 UNK         0.0836 
    111 H111      -77.7594   25.7094  -69.5951 H         1 UNK         0.0836 
    112 H112      -77.8428   23.8503  -74.5352 H         1 UNK         0.3022 
    113 H113      -75.7676   21.5431  -76.2695 H         1 UNK         0.0747 
    114 H114      -76.8659   19.9416  -74.7203 H         1 UNK         0.0793 
    115 H115      -75.6017   20.8259  -73.8830 H         1 UNK         0.0793 
    116 H116      -77.2862   21.2532  -73.6175 H         1 UNK         0.0793 
    117 H117      -78.5840   21.6352  -75.7136 H         1 UNK         0.3047 
    118 H118      -79.4966   23.5364  -78.6055 H         1 UNK         0.0822 
    119 H119      -80.9081   21.5352  -78.9462 H         1 UNK         0.0807 
    120 H120      -79.9410   20.6107  -77.7969 H         1 UNK         0.0807 
    121 H121      -79.2360   21.1504  -79.3143 H         1 UNK         0.0807 
    122 H122      -81.1353   22.4607  -76.5698 H         1 UNK         0.2946 
    123 H123      -82.3656   24.4015  -75.3934 H         1 UNK         0.1144 
    124 H124      -80.1583   23.4930  -73.4298 H         1 UNK         0.0793 
    125 H125      -81.3155   22.4317  -74.2161 H         1 UNK         0.0793 
    126 H126      -81.8693   23.5902  -73.0315 H         1 UNK         0.0793 
    127 H127      -80.4148   26.3445  -74.9215 H         1 UNK         0.2896 
@<TRIPOS>BOND
     1    1    2 1    
     2    1   67 1    
     3    1   68 1    
     4    1   69 1    
     5    2    3 2    
     6    2    4 am   BACKBONE|DICT|INTERRES
     7    4    5 1    
     8    4   70 1    
     9    5    6 1    
    10    5   65 1    
    11    5   71 1    
    12    6    7 1    
    13    6   72 1    
    14    6   73 1    
    15    7    8 1    
    16    8    9 1    
    17    8   74 1    
    18    8   75 1    
    19    9   10 ar   
    20    9   14 ar   
    21   10   11 ar   
    22   10   76 1    
    23   11   12 ar   
    24   11   48 1    
    25   12   13 ar   
    26   12   77 1    
    27   13   14 ar   
    28   13   15 1    
    29   14   78 1    
    30   15   16 1    
    31   15   79 1    
    32   15   80 1    
    33   16   17 1    
    34   17   18 1    
    35   17   81 1    
    36   17   82 1    
    37   18   19 1    
    38   18   22 1    
    39   18   83 1    
    40   19   20 am   BACKBONE|DICT|INTERRES
    41   19   21 2    
    42   20   84 1    
    43   20   85 1    
    44   22   23 am   BACKBONE|DICT|INTERRES
    45   22   86 1    
    46   23   24 2    
    47   23   25 1    
    48   25   26 1    
    49   25   27 1    
    50   25   87 1    
    51   26   88 1    
    52   26   89 1    
    53   26   90 1    
    54   27   28 am   BACKBONE|DICT|INTERRES
    55   27   91 1    
    56   28   29 2    
    57   28   30 1    
    58   30   31 1    
    59   30   32 1    
    60   30   92 1    
    61   31   93 1    
    62   31   94 1    
    63   31   95 1    
    64   32   33 am   BACKBONE|DICT|INTERRES
    65   32   96 1    
    66   33   34 2    
    67   33   35 1    
    68   35   36 1    
    69   35   37 1    
    70   35   97 1    
    71   36   98 1    
    72   36   99 1    
    73   36  100 1    
    74   37   38 am   BACKBONE|DICT|INTERRES
    75   37  101 1    
    76   38   39 2    
    77   38   40 1    
    78   40   41 1    
    79   40   42 1    
    80   40  102 1    
    81   41  103 1    
    82   41  104 1    
    83   41  105 1    
    84   42   43 am   BACKBONE|DICT|INTERRES
    85   42  106 1    
    86   43   44 2    
    87   43   45 1    
    88   45   46 1    
    89   45   49 1    
    90   45  107 1    
    91   46   47 1    
    92   46  108 1    
    93   46  109 1    
    94   47   48 1    
    95   48  110 1    
    96   48  111 1    
    97   49   50 am   BACKBONE|DICT|INTERRES
    98   49  112 1    
    99   50   51 2    
   100   50   52 1    
   101   52   53 1    
   102   52   54 1    
   103   52  113 1    
   104   53  114 1    
   105   53  115 1    
   106   53  116 1    
   107   54   55 am   BACKBONE|DICT|INTERRES
   108   54  117 1    
   109   55   56 2    
   110   55   57 1    
   111   57   58 1    
   112   57   59 1    
   113   57  118 1    
   114   58  119 1    
   115   58  120 1    
   116   58  121 1    
   117   59   60 am   BACKBONE|DICT|INTERRES
   118   59  122 1    
   119   60   61 2    
   120   60   62 1    
   121   62   63 1    
   122   62   64 1    
   123   62  123 1    
   124   63  124 1    
   125   63  125 1    
   126   63  126 1    
   127   64   65 am   BACKBONE|DICT|INTERRES
   128   64  127 1    
   129   65   66 2    
@<TRIPOS>SUBSTRUCTURE
     1 UNK         1 GROUP             0       ****    0 ROOT    
