@<TRIPOS>MOLECULE
3R135
127   129    1
SMALL
USER_CHARGES


@<TRIPOS>ATOM
      1 CA        -80.3716   26.7435  -69.3005 C.3       0 UNK        -0.1998 
      2 C         -81.5163   26.6619  -70.2986 C.2       0 UNK         0.4909 
      3 O         -82.5012   25.9664  -70.0498 O.2       0 UNK        -0.5240 
      4 N         -81.3925   27.3752  -71.4249 N.am      1 UNK        -0.4739 
      5 CA        -82.3905   27.4529  -72.5023 C.3       1 UNK         0.0864 
      6 C6        -82.0935   28.6006  -73.5044 C.3       11 UNK        -0.0881 
      7 S7        -81.8041   30.2227  -72.7077 S.3       11 UNK        -0.2682 
      8 C8        -80.2181   30.7463  -73.4465 C.3       11 UNK         0.0289 
      9 C9        -79.0041   30.2900  -72.6432 C.ar      11 UNK        -0.0687 
     10 C10       -78.7182   28.9312  -72.4976 C.ar      11 UNK        -0.0823 
     11 C11       -77.5917   28.4969  -71.7865 C.ar      11 UNK        -0.0830 
     12 C12       -76.7400   29.4524  -71.2259 C.ar      11 UNK        -0.1021 
     13 C13       -76.9895   30.8172  -71.3934 C.ar      11 UNK        -0.0753 
     14 C14       -78.1310   31.2298  -72.0880 C.ar      11 UNK        -0.0933 
     15 C15       -76.0147   31.8501  -70.8507 C.3       11 UNK         0.0166 
     16 S16       -74.6799   32.1799  -72.0464 S.3       11 UNK        -0.2615 
     17 C17       -73.3806   31.0403  -71.4608 C.3       11 UNK        -0.0865 
     18 CA        -72.1522   31.0083  -72.4111 C.3       10 UNK         0.0862 
     19 C         -70.8878   30.4391  -71.6967 C.2       10 UNK         0.5551 
     20 N         -70.1785   29.4585  -72.2419 N.am      10 UNK        -0.7319 
     21 O         -70.5311   30.9100  -70.6193 O.2       10 UNK        -0.5018 
     22 N         -72.4770   30.3538  -73.6914 N.am      10 UNK        -0.4509 
     23 C         -71.8660   30.6046  -74.8561 C.2       10 UNK         0.4899 
     24 O         -71.0158   31.4840  -75.0066 O.2       10 UNK        -0.4839 
     25 CA        -72.2618   29.6976  -76.0420 C.3       9 UNK         0.0222 
     26 CB        -71.3558   29.8937  -77.2754 C.3       9 UNK        -0.1966 
     27 N         -72.3335   28.2710  -75.6949 N.am      9 UNK        -0.4218 
     28 C         -71.3764   27.5223  -75.1229 C.2       9 UNK         0.5020 
     29 O         -70.2854   27.9570  -74.7537 O.2       9 UNK        -0.5274 
     30 CA        -71.6961   26.0341  -74.9113 C.3       8 UNK         0.0270 
     31 CB        -72.6299   25.8465  -73.7034 C.3       8 UNK        -0.1976 
     32 N         -72.2793   25.4109  -76.1023 N.am      8 UNK        -0.4313 
     33 C         -71.5992   25.1282  -77.2237 C.2       8 UNK         0.5041 
     34 O         -70.3928   25.3321  -77.3639 O.2       8 UNK        -0.5577 
     35 CA        -72.3912   24.5044  -78.3855 C.3       7 UNK         0.0284 
     36 CB        -72.3830   22.9702  -78.2846 C.3       7 UNK        -0.1958 
     37 N         -73.7730   24.9865  -78.4282 N.am      7 UNK        -0.4454 
     38 C         -74.1427   26.1530  -78.9791 C.2       7 UNK         0.5089 
     39 O         -73.3734   26.8967  -79.5880 O.2       7 UNK        -0.5125 
     40 CA        -75.6135   26.5793  -78.8045 C.3       6 UNK         0.0408 
     41 CB        -76.4553   26.1072  -79.9998 C.3       6 UNK        -0.1791 
     42 N         -76.2180   26.0888  -77.5632 N.am      6 UNK        -0.4762 
     43 C         -75.7992   26.4130  -76.3299 C.2       6 UNK         0.5007 
     44 O         -74.9010   27.2254  -76.1106 O.2       6 UNK        -0.5032 
     45 CA        -76.4347   25.6719  -75.1367 C.3       5 UNK         0.0783 
     46 C46       -77.4313   26.5952  -74.4106 C.3       11 UNK        -0.0857 
     47 S47       -78.0232   25.8879  -72.8336 S.3       11 UNK        -0.2512 
     48 C48       -77.2409   27.0145  -71.6252 C.3       11 UNK         0.0225 
     49 N         -77.0286   24.3836  -75.5076 N.am      5 UNK        -0.4615 
     50 C         -76.3360   23.3382  -75.9829 C.2       4 UNK         0.5053 
     51 O         -75.1187   23.3682  -76.1704 O.2       4 UNK        -0.5105 
     52 CA        -77.1180   22.0613  -76.3399 C.3       4 UNK         0.0263 
     53 CB        -76.9536   21.0119  -75.2294 C.3       4 UNK        -0.1981 
     54 N         -78.5465   22.2857  -76.5795 N.am      4 UNK        -0.4224 
     55 C         -79.0615   22.9998  -77.5918 C.2       3 UNK         0.4895 
     56 O         -78.3818   23.5310  -78.4706 O.2       3 UNK        -0.5091 
     57 CA        -80.5911   23.1859  -77.5972 C.3       3 UNK         0.0250 
     58 CB        -81.2646   22.0843  -78.4311 C.3       3 UNK        -0.1996 
     59 N         -81.1809   23.2130  -76.2511 N.am      3 UNK        -0.4254 
     60 C         -80.9245   24.1603  -75.3382 C.2       2 UNK         0.5004 
     61 O         -80.1787   25.1183  -75.5488 O.2       2 UNK        -0.5226 
     62 CA        -81.5450   23.9641  -73.9466 C.3       2 UNK         0.0269 
     63 CB        -80.7186   22.9511  -73.1353 C.3       2 UNK        -0.1926 
     64 N         -81.5791   25.2296  -73.2122 N.am      2 UNK        -0.4687 
     65 C         -82.5768   26.1222  -73.2692 C.2       1 UNK         0.5165 
     66 O         -83.6177   25.9347  -73.9018 O.2       1 UNK        -0.5079 
     67 H67       -80.7579   26.9294  -68.2987 H         1 UNK         0.0900 
     68 H68       -79.8198   25.8041  -69.2854 H         1 UNK         0.0900 
     69 H69       -79.6762   27.5461  -69.5457 H         1 UNK         0.0900 
     70 H70       -80.5846   27.9696  -71.5407 H         1 UNK         0.2959 
     71 H71       -83.3501   27.6694  -72.0275 H         1 UNK         0.1079 
     72 H72       -81.2487   28.3435  -74.1451 H         1 UNK         0.0837 
     73 H73       -82.9399   28.7237  -74.1831 H         1 UNK         0.0837 
     74 H74       -80.2299   31.8349  -73.5193 H         1 UNK         0.0685 
     75 H75       -80.1390   30.3820  -74.4716 H         1 UNK         0.0685 
     76 H76       -79.3662   28.2125  -72.9699 H         1 UNK         0.1434 
     77 H77       -75.8631   29.1325  -70.6804 H         1 UNK         0.1329 
     78 H78       -78.3237   32.2861  -72.2178 H         1 UNK         0.1335 
     79 H79       -76.5392   32.7848  -70.6461 H         1 UNK         0.0680 
     80 H80       -75.5995   31.5214  -69.8966 H         1 UNK         0.0680 
     81 H81       -73.7914   30.0378  -71.3380 H         1 UNK         0.1032 
     82 H82       -73.0949   31.3756  -70.4617 H         1 UNK         0.1032 
     83 H83       -71.8941   32.0466  -72.6293 H         1 UNK         0.0461 
     84 H84       -69.3646   29.1203  -71.7543 H         1 UNK         0.3453 
     85 H85       -70.4049   29.0775  -73.1544 H         1 UNK         0.3453 
     86 H86       -73.1593   29.6116  -73.6542 H         1 UNK         0.2984 
     87 H87       -73.2732   29.9920  -76.3259 H         1 UNK         0.0554 
     88 H88       -71.3742   30.9295  -77.6165 H         1 UNK         0.0847 
     89 H89       -71.6839   29.2728  -78.1095 H         1 UNK         0.0847 
     90 H90       -70.3179   29.6396  -77.0571 H         1 UNK         0.0847 
     91 H91       -73.2235   27.8211  -75.9103 H         1 UNK         0.3141 
     92 H92       -70.7580   25.5194  -74.6914 H         1 UNK         0.0743 
     93 H93       -72.1517   26.2020  -72.7895 H         1 UNK         0.0784 
     94 H94       -73.5601   26.4031  -73.8142 H         1 UNK         0.0784 
     95 H95       -72.8790   24.7962  -73.5499 H         1 UNK         0.0784 
     96 H96       -73.2650   25.1948  -76.0761 H         1 UNK         0.3213 
     97 H97       -71.8901   24.7813  -79.3159 H         1 UNK         0.0855 
     98 H98       -72.8428   22.6195  -77.3601 H         1 UNK         0.0814 
     99 H99       -71.3622   22.5862  -78.3043 H         1 UNK         0.0814 
    100 H100      -72.9162   22.5144  -79.1189 H         1 UNK         0.0814 
    101 H101      -74.4624   24.4398  -77.9253 H         1 UNK         0.3105 
    102 H102      -75.6391   27.6707  -78.7772 H         1 UNK         0.0547 
    103 H103      -77.4823   26.4659  -79.9295 H         1 UNK         0.0837 
    104 H104      -76.4855   25.0189  -80.0678 H         1 UNK         0.0837 
    105 H105      -76.0454   26.4819  -80.9388 H         1 UNK         0.0837 
    106 H106      -76.9575   25.4038  -77.6566 H         1 UNK         0.3020 
    107 H107      -75.6210   25.4529  -74.4432 H         1 UNK         0.1245 
    108 H108      -78.2939   26.8084  -75.0432 H         1 UNK         0.0781 
    109 H109      -76.9632   27.5621  -74.2184 H         1 UNK         0.0781 
    110 H110      -76.1597   26.8860  -71.6986 H         1 UNK         0.0836 
    111 H111      -77.5202   26.6948  -70.6210 H         1 UNK         0.0836 
    112 H112      -78.0329   24.3145  -75.4026 H         1 UNK         0.3022 
    113 H113      -76.6831   21.6623  -77.2586 H         1 UNK         0.0747 
    114 H114      -77.4276   20.0683  -75.5003 H         1 UNK         0.0793 
    115 H115      -75.8991   20.8005  -75.0453 H         1 UNK         0.0793 
    116 H116      -77.3873   21.3493  -74.2869 H         1 UNK         0.0793 
    117 H117      -79.1860   21.8847  -75.9097 H         1 UNK         0.3047 
    118 H118      -80.7984   24.1481  -78.0710 H         1 UNK         0.0822 
    119 H119      -82.3380   22.2531  -78.5192 H         1 UNK         0.0807 
    120 H120      -81.1135   21.0958  -77.9955 H         1 UNK         0.0807 
    121 H121      -80.8589   22.0594  -79.4437 H         1 UNK         0.0807 
    122 H122      -81.8003   22.4517  -76.0107 H         1 UNK         0.2946 
    123 H123      -82.5616   23.5813  -74.0644 H         1 UNK         0.1144 
    124 H124      -79.6797   23.2666  -73.0295 H         1 UNK         0.0793 
    125 H125      -80.7150   21.9706  -73.6127 H         1 UNK         0.0793 
    126 H126      -81.1297   22.8184  -72.1342 H         1 UNK         0.0793 
    127 H127      -80.7346   25.4883  -72.7220 H         1 UNK         0.2896 
@<TRIPOS>BOND
     1    1    2 1    
     2    1   67 1    
     3    1   68 1    
     4    1   69 1    
     5    2    3 2    
     6    2    4 am   BACKBONE|DICT|INTERRES
     7    4    5 1    
     8    4   70 1    
     9    5    6 1    
    10    5   65 1    
    11    5   71 1    
    12    6    7 1    
    13    6   72 1    
    14    6   73 1    
    15    7    8 1    
    16    8    9 1    
    17    8   74 1    
    18    8   75 1    
    19    9   10 ar   
    20    9   14 ar   
    21   10   11 ar   
    22   10   76 1    
    23   11   12 ar   
    24   11   48 1    
    25   12   13 ar   
    26   12   77 1    
    27   13   14 ar   
    28   13   15 1    
    29   14   78 1    
    30   15   16 1    
    31   15   79 1    
    32   15   80 1    
    33   16   17 1    
    34   17   18 1    
    35   17   81 1    
    36   17   82 1    
    37   18   19 1    
    38   18   22 1    
    39   18   83 1    
    40   19   20 am   BACKBONE|DICT|INTERRES
    41   19   21 2    
    42   20   84 1    
    43   20   85 1    
    44   22   23 am   BACKBONE|DICT|INTERRES
    45   22   86 1    
    46   23   24 2    
    47   23   25 1    
    48   25   26 1    
    49   25   27 1    
    50   25   87 1    
    51   26   88 1    
    52   26   89 1    
    53   26   90 1    
    54   27   28 am   BACKBONE|DICT|INTERRES
    55   27   91 1    
    56   28   29 2    
    57   28   30 1    
    58   30   31 1    
    59   30   32 1    
    60   30   92 1    
    61   31   93 1    
    62   31   94 1    
    63   31   95 1    
    64   32   33 am   BACKBONE|DICT|INTERRES
    65   32   96 1    
    66   33   34 2    
    67   33   35 1    
    68   35   36 1    
    69   35   37 1    
    70   35   97 1    
    71   36   98 1    
    72   36   99 1    
    73   36  100 1    
    74   37   38 am   BACKBONE|DICT|INTERRES
    75   37  101 1    
    76   38   39 2    
    77   38   40 1    
    78   40   41 1    
    79   40   42 1    
    80   40  102 1    
    81   41  103 1    
    82   41  104 1    
    83   41  105 1    
    84   42   43 am   BACKBONE|DICT|INTERRES
    85   42  106 1    
    86   43   44 2    
    87   43   45 1    
    88   45   46 1    
    89   45   49 1    
    90   45  107 1    
    91   46   47 1    
    92   46  108 1    
    93   46  109 1    
    94   47   48 1    
    95   48  110 1    
    96   48  111 1    
    97   49   50 am   BACKBONE|DICT|INTERRES
    98   49  112 1    
    99   50   51 2    
   100   50   52 1    
   101   52   53 1    
   102   52   54 1    
   103   52  113 1    
   104   53  114 1    
   105   53  115 1    
   106   53  116 1    
   107   54   55 am   BACKBONE|DICT|INTERRES
   108   54  117 1    
   109   55   56 2    
   110   55   57 1    
   111   57   58 1    
   112   57   59 1    
   113   57  118 1    
   114   58  119 1    
   115   58  120 1    
   116   58  121 1    
   117   59   60 am   BACKBONE|DICT|INTERRES
   118   59  122 1    
   119   60   61 2    
   120   60   62 1    
   121   62   63 1    
   122   62   64 1    
   123   62  123 1    
   124   63  124 1    
   125   63  125 1    
   126   63  126 1    
   127   64   65 am   BACKBONE|DICT|INTERRES
   128   64  127 1    
   129   65   66 2    
@<TRIPOS>SUBSTRUCTURE
     1 UNK         1 GROUP             0       ****    0 ROOT    
