@<TRIPOS>MOLECULE
3R135
127   129    1
SMALL
USER_CHARGES


@<TRIPOS>ATOM
      1 CA        -82.4228   25.8066  -71.2123 C.3       0 UNK        -0.1998 
      2 C         -83.0053   26.3754  -72.4969 C.2       0 UNK         0.4909 
      3 O         -84.1952   26.2044  -72.7633 O.2       0 UNK        -0.5240 
      4 N         -82.1723   27.0336  -73.3117 N.am      1 UNK        -0.4739 
      5 CA        -82.5210   27.6685  -74.5908 C.3       1 UNK         0.0864 
      6 C6        -81.5560   28.8427  -74.9147 C.3       11 UNK        -0.0881 
      7 S7        -79.7850   28.3935  -74.8378 S.3       11 UNK        -0.2682 
      8 C8        -79.2105   29.3632  -73.4124 C.3       11 UNK         0.0289 
      9 C9        -77.7546   29.0517  -73.1017 C.ar      11 UNK        -0.0687 
     10 C10       -77.4281   28.1133  -72.1178 C.ar      11 UNK        -0.0823 
     11 C11       -76.0905   27.8216  -71.8311 C.ar      11 UNK        -0.0830 
     12 C12       -75.0773   28.4785  -72.5358 C.ar      11 UNK        -0.1021 
     13 C13       -75.3913   29.4114  -73.5286 C.ar      11 UNK        -0.0753 
     14 C14       -76.7321   29.6983  -73.8029 C.ar      11 UNK        -0.0933 
     15 C15       -74.2877   30.0811  -74.3327 C.3       11 UNK         0.0166 
     16 S16       -73.8901   31.7405  -73.7071 S.3       11 UNK        -0.2615 
     17 C17       -72.8512   31.3573  -72.2560 C.3       11 UNK        -0.0865 
     18 CA        -71.3424   31.5824  -72.5344 C.3       10 UNK         0.0862 
     19 C         -70.5145   31.5188  -71.2178 C.2       10 UNK         0.5551 
     20 N         -69.5719   30.5957  -71.0654 N.am      10 UNK        -0.7319 
     21 O         -70.7252   32.3319  -70.3212 O.2       10 UNK        -0.5018 
     22 N         -70.8385   30.6845  -73.5881 N.am      10 UNK        -0.4509 
     23 C         -69.8642   30.9875  -74.4512 C.2       10 UNK         0.4899 
     24 O         -69.3462   32.1025  -74.5243 O.2       10 UNK        -0.4839 
     25 CA        -69.3557   29.8809  -75.3986 C.3       9 UNK         0.0222 
     26 CB        -68.0204   29.3079  -74.8842 C.3       9 UNK        -0.1966 
     27 N         -70.2940   28.7925  -75.7206 N.am      9 UNK        -0.4218 
     28 C         -70.8392   27.8652  -74.9221 C.2       9 UNK         0.5020 
     29 O         -70.7256   27.8695  -73.6948 O.2       9 UNK        -0.5274 
     30 CA        -71.6670   26.7675  -75.6223 C.3       8 UNK         0.0270 
     31 CB        -72.0631   25.6337  -74.6581 C.3       8 UNK        -0.1976 
     32 N         -72.8653   27.3047  -76.2836 N.am      8 UNK        -0.4313 
     33 C         -72.8499   27.9933  -77.4373 C.2       8 UNK         0.5041 
     34 O         -71.8070   28.2205  -78.0558 O.2       8 UNK        -0.5577 
     35 CA        -74.1703   28.5795  -77.9818 C.3       7 UNK         0.0284 
     36 CB        -74.2430   28.5331  -79.5238 C.3       7 UNK        -0.1958 
     37 N         -75.3886   28.0339  -77.3730 N.am      7 UNK        -0.4454 
     38 C         -75.8904   26.7982  -77.4986 C.2       7 UNK         0.5089 
     39 O         -75.4011   25.9047  -78.1925 O.2       7 UNK        -0.5125 
     40 CA        -77.1584   26.5200  -76.6705 C.3       6 UNK         0.0408 
     41 CB        -78.3480   26.1863  -77.5840 C.3       6 UNK        -0.1791 
     42 N         -76.9825   25.4511  -75.6830 N.am      6 UNK        -0.4762 
     43 C         -75.9842   25.3814  -74.7854 C.2       6 UNK         0.5007 
     44 O         -75.0979   26.2302  -74.7067 O.2       6 UNK        -0.5032 
     45 CA        -75.9438   24.1668  -73.8262 C.3       5 UNK         0.0783 
     46 C46       -76.3466   24.5532  -72.3785 C.3       11 UNK        -0.0857 
     47 S47       -74.9706   25.2964  -71.4382 S.3       11 UNK        -0.2512 
     48 C48       -75.7363   26.8036  -70.7553 C.3       11 UNK         0.0225 
     49 N         -76.7531   23.0420  -74.3015 N.am      5 UNK        -0.4615 
     50 C         -76.4882   22.2846  -75.3740 C.2       4 UNK         0.5053 
     51 O         -75.4466   22.3680  -76.0242 O.2       4 UNK        -0.5105 
     52 CA        -77.5684   21.2702  -75.8073 C.3       4 UNK         0.0263 
     53 CB        -77.0833   19.8312  -75.5635 C.3       4 UNK        -0.1981 
     54 N         -78.8792   21.4454  -75.1635 N.am      4 UNK        -0.4224 
     55 C         -79.6707   22.5213  -75.2799 C.2       3 UNK         0.4895 
     56 O         -79.3705   23.5240  -75.9306 O.2       3 UNK        -0.5091 
     57 CA        -80.9644   22.4945  -74.4493 C.3       3 UNK         0.0250 
     58 CB        -80.6582   22.8285  -72.9784 C.3       3 UNK        -0.1996 
     59 N         -81.9633   23.4439  -74.9385 N.am      3 UNK        -0.4254 
     60 C         -82.6702   23.3249  -76.0707 C.2       2 UNK         0.5004 
     61 O         -82.5845   22.3599  -76.8318 O.2       2 UNK        -0.5226 
     62 CA        -83.6686   24.4541  -76.3945 C.3       2 UNK         0.0269 
     63 CB        -85.1152   23.9463  -76.2706 C.3       2 UNK        -0.1926 
     64 N         -83.5040   25.6186  -75.5176 N.am      2 UNK        -0.4687 
     65 C         -82.6545   26.6307  -75.7337 C.2       1 UNK         0.5165 
     66 O         -81.9924   26.7400  -76.7664 O.2       1 UNK        -0.5079 
     67 H67       -81.3396   25.9194  -71.1702 H         1 UNK         0.0900 
     68 H68       -82.6565   24.7456  -71.1303 H         1 UNK         0.0900 
     69 H69       -82.8519   26.3163  -70.3502 H         1 UNK         0.0900 
     70 H70       -81.1961   27.1142  -73.0645 H         1 UNK         0.2959 
     71 H71       -83.5162   28.1070  -74.4848 H         1 UNK         0.1079 
     72 H72       -81.7674   29.2580  -75.9019 H         1 UNK         0.0837 
     73 H73       -81.7432   29.6605  -74.2171 H         1 UNK         0.0837 
     74 H74       -79.3269   30.4269  -73.6260 H         1 UNK         0.0685 
     75 H75       -79.8384   29.1490  -72.5461 H         1 UNK         0.0685 
     76 H76       -78.2169   27.6083  -71.5776 H         1 UNK         0.1434 
     77 H77       -74.0440   28.2350  -72.3306 H         1 UNK         0.1329 
     78 H78       -76.9813   30.4188  -74.5698 H         1 UNK         0.1335 
     79 H79       -73.3890   29.4641  -74.3435 H         1 UNK         0.0680 
     80 H80       -74.6045   30.1753  -75.3710 H         1 UNK         0.0680 
     81 H81       -73.0301   30.3378  -71.9144 H         1 UNK         0.1032 
     82 H82       -73.1903   32.0049  -71.4450 H         1 UNK         0.1032 
     83 H83       -71.2383   32.6102  -72.8876 H         1 UNK         0.0461 
     84 H84       -69.0390   30.5684  -70.2104 H         1 UNK         0.3453 
     85 H85       -69.4012   29.9177  -71.7909 H         1 UNK         0.3453 
     86 H86       -71.1258   29.7119  -73.5377 H         1 UNK         0.2984 
     87 H87       -69.1534   30.3728  -76.3513 H         1 UNK         0.0554 
     88 H88       -67.5877   28.6076  -75.5986 H         1 UNK         0.0847 
     89 H89       -68.1399   28.7861  -73.9342 H         1 UNK         0.0847 
     90 H90       -67.2881   30.1013  -74.7273 H         1 UNK         0.0847 
     91 H91       -70.5547   28.7216  -76.7031 H         1 UNK         0.3141 
     92 H92       -71.0260   26.3239  -76.3872 H         1 UNK         0.0743 
     93 H93       -72.6634   26.0016  -73.8249 H         1 UNK         0.0784 
     94 H94       -72.6337   24.8575  -75.1683 H         1 UNK         0.0784 
     95 H95       -71.1785   25.1590  -74.2319 H         1 UNK         0.0784 
     96 H96       -73.7512   27.1272  -75.8143 H         1 UNK         0.3213 
     97 H97       -74.1513   29.6333  -77.7009 H         1 UNK         0.0855 
     98 H98       -73.4268   29.1015  -79.9715 H         1 UNK         0.0814 
     99 H99       -75.1737   28.9643  -79.8920 H         1 UNK         0.0814 
    100 H100      -74.1701   27.5139  -79.9039 H         1 UNK         0.0814 
    101 H101      -75.8761   28.6630  -76.7504 H         1 UNK         0.3105 
    102 H102      -77.4052   27.4227  -76.1108 H         1 UNK         0.0547 
    103 H103      -78.5069   26.9712  -78.3242 H         1 UNK         0.0837 
    104 H104      -78.1918   25.2510  -78.1227 H         1 UNK         0.0837 
    105 H105      -79.2715   26.0921  -77.0121 H         1 UNK         0.0837 
    106 H106      -77.6749   24.7099  -75.7028 H         1 UNK         0.3020 
    107 H107      -74.9073   23.8211  -73.8155 H         1 UNK         0.1245 
    108 H108      -76.6425   23.6634  -71.8203 H         1 UNK         0.0781 
    109 H109      -77.2214   25.2058  -72.3722 H         1 UNK         0.0781 
    110 H110      -75.0397   27.2614  -70.0516 H         1 UNK         0.0836 
    111 H111      -76.6164   26.5260  -70.1731 H         1 UNK         0.0836 
    112 H112      -77.6314   22.8935  -73.8293 H         1 UNK         0.3022 
    113 H113      -77.7123   21.4048  -76.8815 H         1 UNK         0.0747 
    114 H114      -77.7923   19.1005  -75.9534 H         1 UNK         0.0793 
    115 H115      -76.1298   19.6491  -76.0616 H         1 UNK         0.0793 
    116 H116      -76.9392   19.6287  -74.5014 H         1 UNK         0.0793 
    117 H117      -79.1951   20.6774  -74.5879 H         1 UNK         0.3047 
    118 H118      -81.3916   21.4908  -74.5059 H         1 UNK         0.0822 
    119 H119      -81.5592   22.7790  -72.3668 H         1 UNK         0.0807 
    120 H120      -80.2332   23.8276  -72.8700 H         1 UNK         0.0807 
    121 H121      -79.9457   22.1223  -72.5500 H         1 UNK         0.0807 
    122 H122      -82.0781   24.2934  -74.4086 H         1 UNK         0.2946 
    123 H123      -83.4955   24.7508  -77.4317 H         1 UNK         0.1144 
    124 H124      -85.2897   23.0949  -76.9300 H         1 UNK         0.0793 
    125 H125      -85.8316   24.7200  -76.5475 H         1 UNK         0.0793 
    126 H126      -85.3444   23.6244  -75.2539 H         1 UNK         0.0793 
    127 H127      -84.0097   25.6134  -74.6356 H         1 UNK         0.2896 
@<TRIPOS>BOND
     1    1    2 1    
     2    1   67 1    
     3    1   68 1    
     4    1   69 1    
     5    2    3 2    
     6    2    4 am   BACKBONE|DICT|INTERRES
     7    4    5 1    
     8    4   70 1    
     9    5    6 1    
    10    5   65 1    
    11    5   71 1    
    12    6    7 1    
    13    6   72 1    
    14    6   73 1    
    15    7    8 1    
    16    8    9 1    
    17    8   74 1    
    18    8   75 1    
    19    9   10 ar   
    20    9   14 ar   
    21   10   11 ar   
    22   10   76 1    
    23   11   12 ar   
    24   11   48 1    
    25   12   13 ar   
    26   12   77 1    
    27   13   14 ar   
    28   13   15 1    
    29   14   78 1    
    30   15   16 1    
    31   15   79 1    
    32   15   80 1    
    33   16   17 1    
    34   17   18 1    
    35   17   81 1    
    36   17   82 1    
    37   18   19 1    
    38   18   22 1    
    39   18   83 1    
    40   19   20 am   BACKBONE|DICT|INTERRES
    41   19   21 2    
    42   20   84 1    
    43   20   85 1    
    44   22   23 am   BACKBONE|DICT|INTERRES
    45   22   86 1    
    46   23   24 2    
    47   23   25 1    
    48   25   26 1    
    49   25   27 1    
    50   25   87 1    
    51   26   88 1    
    52   26   89 1    
    53   26   90 1    
    54   27   28 am   BACKBONE|DICT|INTERRES
    55   27   91 1    
    56   28   29 2    
    57   28   30 1    
    58   30   31 1    
    59   30   32 1    
    60   30   92 1    
    61   31   93 1    
    62   31   94 1    
    63   31   95 1    
    64   32   33 am   BACKBONE|DICT|INTERRES
    65   32   96 1    
    66   33   34 2    
    67   33   35 1    
    68   35   36 1    
    69   35   37 1    
    70   35   97 1    
    71   36   98 1    
    72   36   99 1    
    73   36  100 1    
    74   37   38 am   BACKBONE|DICT|INTERRES
    75   37  101 1    
    76   38   39 2    
    77   38   40 1    
    78   40   41 1    
    79   40   42 1    
    80   40  102 1    
    81   41  103 1    
    82   41  104 1    
    83   41  105 1    
    84   42   43 am   BACKBONE|DICT|INTERRES
    85   42  106 1    
    86   43   44 2    
    87   43   45 1    
    88   45   46 1    
    89   45   49 1    
    90   45  107 1    
    91   46   47 1    
    92   46  108 1    
    93   46  109 1    
    94   47   48 1    
    95   48  110 1    
    96   48  111 1    
    97   49   50 am   BACKBONE|DICT|INTERRES
    98   49  112 1    
    99   50   51 2    
   100   50   52 1    
   101   52   53 1    
   102   52   54 1    
   103   52  113 1    
   104   53  114 1    
   105   53  115 1    
   106   53  116 1    
   107   54   55 am   BACKBONE|DICT|INTERRES
   108   54  117 1    
   109   55   56 2    
   110   55   57 1    
   111   57   58 1    
   112   57   59 1    
   113   57  118 1    
   114   58  119 1    
   115   58  120 1    
   116   58  121 1    
   117   59   60 am   BACKBONE|DICT|INTERRES
   118   59  122 1    
   119   60   61 2    
   120   60   62 1    
   121   62   63 1    
   122   62   64 1    
   123   62  123 1    
   124   63  124 1    
   125   63  125 1    
   126   63  126 1    
   127   64   65 am   BACKBONE|DICT|INTERRES
   128   64  127 1    
   129   65   66 2    
@<TRIPOS>SUBSTRUCTURE
     1 UNK         1 GROUP             0       ****    0 ROOT    
