@<TRIPOS>MOLECULE
3R135
127   129    1
SMALL
USER_CHARGES


@<TRIPOS>ATOM
      1 CA        -83.6640   25.8360  -69.9021 C.3       0 UNK        -0.1998 
      2 C         -82.6639   26.2515  -70.9702 C.2       0 UNK         0.4909 
      3 O         -82.8318   27.3014  -71.5926 O.2       0 UNK        -0.5240 
      4 N         -81.6228   25.4383  -71.1883 N.am      1 UNK        -0.4739 
      5 CA        -80.5774   25.6604  -72.1908 C.3       1 UNK         0.0864 
      6 C6        -79.2642   24.9163  -71.8253 C.3       11 UNK        -0.0881 
      7 S7        -78.4852   25.5088  -70.2806 S.3       11 UNK        -0.2682 
      8 C8        -76.8177   26.0088  -70.8443 C.3       11 UNK         0.0289 
      9 C9        -76.7443   27.4764  -71.2542 C.ar      11 UNK        -0.0687 
     10 C10       -77.6104   27.9788  -72.2241 C.ar      11 UNK        -0.0823 
     11 C11       -77.5831   29.3248  -72.5977 C.ar      11 UNK        -0.0830 
     12 C12       -76.6557   30.1737  -71.9893 C.ar      11 UNK        -0.1021 
     13 C13       -75.7497   29.6861  -71.0378 C.ar      11 UNK        -0.0753 
     14 C14       -75.8075   28.3361  -70.6720 C.ar      11 UNK        -0.0933 
     15 C15       -74.7452   30.6036  -70.3416 C.3       11 UNK         0.0166 
     16 S16       -74.1317   31.9868  -71.3648 S.3       11 UNK        -0.2615 
     17 C17       -73.0017   31.1512  -72.5334 C.3       11 UNK        -0.0865 
     18 CA        -73.5559   31.0201  -73.9868 C.3       10 UNK         0.0862 
     19 C         -73.5688   32.3432  -74.8177 C.2       10 UNK         0.5551 
     20 N         -73.7410   33.4952  -74.1857 N.am      10 UNK        -0.7319 
     21 O         -73.4740   32.3341  -76.0442 O.2       10 UNK        -0.5018 
     22 N         -72.9142   29.9089  -74.7052 N.am      10 UNK        -0.4509 
     23 C         -71.6142   29.8243  -75.0229 C.2       10 UNK         0.4899 
     24 O         -70.7717   30.6733  -74.7248 O.2       10 UNK        -0.4839 
     25 CA        -71.1938   28.5539  -75.7855 C.3       9 UNK         0.0222 
     26 CB        -69.6657   28.4125  -75.9505 C.3       9 UNK        -0.1966 
     27 N         -71.7762   27.3462  -75.1923 N.am      9 UNK        -0.4218 
     28 C         -71.5935   26.8652  -73.9526 C.2       9 UNK         0.5020 
     29 O         -70.8147   27.3471  -73.1289 O.2       9 UNK        -0.5274 
     30 CA        -72.4423   25.6459  -73.5467 C.3       8 UNK         0.0270 
     31 CB        -73.6070   26.0880  -72.6461 C.3       8 UNK        -0.1976 
     32 N         -72.9820   24.9028  -74.6886 N.am      8 UNK        -0.4313 
     33 C         -72.2571   24.1382  -75.5170 C.2       8 UNK         0.5041 
     34 O         -71.0570   23.9069  -75.3660 O.2       8 UNK        -0.5577 
     35 CA        -72.9904   23.5665  -76.7408 C.3       7 UNK         0.0284 
     36 CB        -73.8024   22.3169  -76.3614 C.3       7 UNK        -0.1958 
     37 N         -73.8654   24.5592  -77.3719 N.am      7 UNK        -0.4454 
     38 C         -73.4351   25.6188  -78.0725 C.2       7 UNK         0.5089 
     39 O         -72.2489   25.8617  -78.2904 O.2       7 UNK        -0.5125 
     40 CA        -74.5088   26.5856  -78.6010 C.3       6 UNK         0.0408 
     41 CB        -75.0330   26.1148  -79.9665 C.3       6 UNK        -0.1791 
     42 N         -75.6331   26.7416  -77.6763 N.am      6 UNK        -0.4762 
     43 C         -75.5669   27.3855  -76.5006 C.2       6 UNK         0.5007 
     44 O         -74.5599   27.9624  -76.0902 O.2       6 UNK        -0.5032 
     45 CA        -76.8242   27.3364  -75.6097 C.3       5 UNK         0.0783 
     46 C46       -77.7489   28.5316  -75.9489 C.3       11 UNK        -0.0857 
     47 S47       -79.1846   28.6893  -74.8385 S.3       11 UNK        -0.2512 
     48 C48       -78.5769   29.8956  -73.6085 C.3       11 UNK         0.0225 
     49 N         -77.5002   26.0304  -75.6861 N.am      5 UNK        -0.4615 
     50 C         -76.9151   24.8691  -75.3477 C.2       4 UNK         0.5053 
     51 O         -75.8042   24.8130  -74.8214 O.2       4 UNK        -0.5105 
     52 CA        -77.6156   23.5462  -75.7063 C.3       4 UNK         0.0263 
     53 CB        -77.7555   22.6117  -74.4932 C.3       4 UNK        -0.1981 
     54 N         -78.9119   23.7142  -76.3651 N.am      4 UNK        -0.4224 
     55 C         -79.0625   23.9789  -77.6719 C.2       3 UNK         0.4895 
     56 O         -78.1161   24.1469  -78.4424 O.2       3 UNK        -0.5091 
     57 CA        -80.4997   24.0928  -78.2142 C.3       3 UNK         0.0250 
     58 CB        -80.9469   22.7569  -78.8288 C.3       3 UNK        -0.1996 
     59 N         -81.4775   24.5120  -77.2060 N.am      3 UNK        -0.4254 
     60 C         -81.4966   25.7204  -76.6275 C.2       2 UNK         0.5004 
     61 O         -80.7079   26.6181  -76.9210 O.2       2 UNK        -0.5226 
     62 CA        -82.5421   25.9694  -75.5211 C.3       2 UNK         0.0269 
     63 CB        -83.6641   24.9073  -75.4612 C.3       2 UNK        -0.1926 
     64 N         -81.9176   26.1214  -74.2001 N.am      2 UNK        -0.4687 
     65 C         -81.0941   25.2564  -73.5898 C.2       1 UNK         0.5165 
     66 O         -80.7667   24.1712  -74.0752 O.2       1 UNK        -0.5079 
     67 H67       -83.7247   26.6004  -69.1280 H         1 UNK         0.0900 
     68 H68       -83.3869   24.8946  -69.4280 H         1 UNK         0.0900 
     69 H69       -84.6538   25.7163  -70.3419 H         1 UNK         0.0900 
     70 H70       -81.5378   24.5854  -70.6538 H         1 UNK         0.2959 
     71 H71       -80.3652   26.7303  -72.2242 H         1 UNK         0.1079 
     72 H72       -79.4515   23.8466  -71.7140 H         1 UNK         0.0837 
     73 H73       -78.5447   25.0096  -72.6394 H         1 UNK         0.0837 
     74 H74       -76.1177   25.8129  -70.0307 H         1 UNK         0.0685 
     75 H75       -76.4961   25.3804  -71.6755 H         1 UNK         0.0685 
     76 H76       -78.3142   27.3115  -72.6880 H         1 UNK         0.1434 
     77 H77       -76.6480   31.2218  -72.2542 H         1 UNK         0.1329 
     78 H78       -75.1277   27.9562  -69.9215 H         1 UNK         0.1335 
     79 H79       -75.2290   31.0228  -69.4586 H         1 UNK         0.0680 
     80 H80       -73.8905   30.0303  -69.9787 H         1 UNK         0.0680 
     81 H81       -72.7782   30.1597  -72.1358 H         1 UNK         0.1032 
     82 H82       -72.0480   31.6819  -72.5354 H         1 UNK         0.1032 
     83 H83       -74.6016   30.7206  -73.9184 H         1 UNK         0.0461 
     84 H84       -73.7695   34.3541  -74.7119 H         1 UNK         0.3453 
     85 H85       -73.8518   33.5066  -73.1818 H         1 UNK         0.3453 
     86 H86       -73.5381   29.1913  -75.0654 H         1 UNK         0.2984 
     87 H87       -71.6262   28.6388  -76.7837 H         1 UNK         0.0554 
     88 H88       -69.4102   27.5109  -76.5072 H         1 UNK         0.0847 
     89 H89       -69.1545   28.3697  -74.9883 H         1 UNK         0.0847 
     90 H90       -69.2533   29.2601  -76.4990 H         1 UNK         0.0847 
     91 H91       -72.4829   26.8942  -75.7565 H         1 UNK         0.3141 
     92 H92       -71.7997   24.9741  -72.9739 H         1 UNK         0.0743 
     93 H93       -74.2997   26.7450  -73.1740 H         1 UNK         0.0784 
     94 H94       -74.1691   25.2276  -72.2841 H         1 UNK         0.0784 
     95 H95       -73.2454   26.6307  -71.7716 H         1 UNK         0.0784 
     96 H96       -73.9881   24.9693  -74.8400 H         1 UNK         0.3213 
     97 H97       -72.2353   23.2693  -77.4723 H         1 UNK         0.0855 
     98 H98       -74.5581   22.5325  -75.6060 H         1 UNK         0.0814 
     99 H99       -73.1510   21.5432  -75.9528 H         1 UNK         0.0814 
    100 H100      -74.3052   21.8896  -77.2292 H         1 UNK         0.0814 
    101 H101      -74.8579   24.4556  -77.2255 H         1 UNK         0.3105 
    102 H102      -74.0398   27.5629  -78.7353 H         1 UNK         0.0547 
    103 H103      -74.2155   25.9985  -80.6794 H         1 UNK         0.0837 
    104 H104      -75.5441   25.1535  -79.8960 H         1 UNK         0.0837 
    105 H105      -75.7317   26.8349  -80.3926 H         1 UNK         0.0837 
    106 H106      -76.5005   26.2883  -77.9314 H         1 UNK         0.3020 
    107 H107      -76.4648   27.4568  -74.5872 H         1 UNK         0.1245 
    108 H108      -77.1905   29.4698  -75.9275 H         1 UNK         0.0781 
    109 H109      -78.1321   28.4348  -76.9667 H         1 UNK         0.0781 
    110 H110      -78.1430   30.7499  -74.1305 H         1 UNK         0.0836 
    111 H111      -79.4355   30.2793  -73.0562 H         1 UNK         0.0836 
    112 H112      -78.4227   26.0233  -76.1012 H         1 UNK         0.3022 
    113 H113      -76.9466   23.0424  -76.4070 H         1 UNK         0.0747 
    114 H114      -78.0853   21.6196  -74.8014 H         1 UNK         0.0793 
    115 H115      -76.8032   22.4853  -73.9761 H         1 UNK         0.0793 
    116 H116      -78.4734   22.9834  -73.7671 H         1 UNK         0.0793 
    117 H117      -79.7326   23.6593  -75.7690 H         1 UNK         0.3047 
    118 H118      -80.4890   24.8461  -79.0051 H         1 UNK         0.0822 
    119 H119      -81.9292   22.8424  -79.2941 H         1 UNK         0.0807 
    120 H120      -80.9957   21.9638  -78.0815 H         1 UNK         0.0807 
    121 H121      -80.2511   22.4318  -79.6038 H         1 UNK         0.0807 
    122 H122      -82.1443   23.8197  -76.8963 H         1 UNK         0.2946 
    123 H123      -83.0063   26.9277  -75.7602 H         1 UNK         0.1144 
    124 H124      -84.1675   24.8087  -76.4240 H         1 UNK         0.0793 
    125 H125      -84.4255   25.1898  -74.7340 H         1 UNK         0.0793 
    126 H126      -83.2918   23.9229  -75.1752 H         1 UNK         0.0793 
    127 H127      -82.1564   26.9670  -73.6951 H         1 UNK         0.2896 
@<TRIPOS>BOND
     1    1    2 1    
     2    1   67 1    
     3    1   68 1    
     4    1   69 1    
     5    2    3 2    
     6    2    4 am   BACKBONE|DICT|INTERRES
     7    4    5 1    
     8    4   70 1    
     9    5    6 1    
    10    5   65 1    
    11    5   71 1    
    12    6    7 1    
    13    6   72 1    
    14    6   73 1    
    15    7    8 1    
    16    8    9 1    
    17    8   74 1    
    18    8   75 1    
    19    9   10 ar   
    20    9   14 ar   
    21   10   11 ar   
    22   10   76 1    
    23   11   12 ar   
    24   11   48 1    
    25   12   13 ar   
    26   12   77 1    
    27   13   14 ar   
    28   13   15 1    
    29   14   78 1    
    30   15   16 1    
    31   15   79 1    
    32   15   80 1    
    33   16   17 1    
    34   17   18 1    
    35   17   81 1    
    36   17   82 1    
    37   18   19 1    
    38   18   22 1    
    39   18   83 1    
    40   19   20 am   BACKBONE|DICT|INTERRES
    41   19   21 2    
    42   20   84 1    
    43   20   85 1    
    44   22   23 am   BACKBONE|DICT|INTERRES
    45   22   86 1    
    46   23   24 2    
    47   23   25 1    
    48   25   26 1    
    49   25   27 1    
    50   25   87 1    
    51   26   88 1    
    52   26   89 1    
    53   26   90 1    
    54   27   28 am   BACKBONE|DICT|INTERRES
    55   27   91 1    
    56   28   29 2    
    57   28   30 1    
    58   30   31 1    
    59   30   32 1    
    60   30   92 1    
    61   31   93 1    
    62   31   94 1    
    63   31   95 1    
    64   32   33 am   BACKBONE|DICT|INTERRES
    65   32   96 1    
    66   33   34 2    
    67   33   35 1    
    68   35   36 1    
    69   35   37 1    
    70   35   97 1    
    71   36   98 1    
    72   36   99 1    
    73   36  100 1    
    74   37   38 am   BACKBONE|DICT|INTERRES
    75   37  101 1    
    76   38   39 2    
    77   38   40 1    
    78   40   41 1    
    79   40   42 1    
    80   40  102 1    
    81   41  103 1    
    82   41  104 1    
    83   41  105 1    
    84   42   43 am   BACKBONE|DICT|INTERRES
    85   42  106 1    
    86   43   44 2    
    87   43   45 1    
    88   45   46 1    
    89   45   49 1    
    90   45  107 1    
    91   46   47 1    
    92   46  108 1    
    93   46  109 1    
    94   47   48 1    
    95   48  110 1    
    96   48  111 1    
    97   49   50 am   BACKBONE|DICT|INTERRES
    98   49  112 1    
    99   50   51 2    
   100   50   52 1    
   101   52   53 1    
   102   52   54 1    
   103   52  113 1    
   104   53  114 1    
   105   53  115 1    
   106   53  116 1    
   107   54   55 am   BACKBONE|DICT|INTERRES
   108   54  117 1    
   109   55   56 2    
   110   55   57 1    
   111   57   58 1    
   112   57   59 1    
   113   57  118 1    
   114   58  119 1    
   115   58  120 1    
   116   58  121 1    
   117   59   60 am   BACKBONE|DICT|INTERRES
   118   59  122 1    
   119   60   61 2    
   120   60   62 1    
   121   62   63 1    
   122   62   64 1    
   123   62  123 1    
   124   63  124 1    
   125   63  125 1    
   126   63  126 1    
   127   64   65 am   BACKBONE|DICT|INTERRES
   128   64  127 1    
   129   65   66 2    
@<TRIPOS>SUBSTRUCTURE
     1 UNK         1 GROUP             0       ****    0 ROOT    
