@<TRIPOS>MOLECULE
3R135
127   129    1
SMALL
USER_CHARGES


@<TRIPOS>ATOM
      1 CA        -84.0760   30.4526  -77.0386 C.3       0 UNK        -0.1998 
      2 C         -82.8979   29.4967  -76.9249 C.2       0 UNK         0.4909 
      3 O         -82.3320   29.1004  -77.9440 O.2       0 UNK        -0.5240 
      4 N         -82.5223   29.1287  -75.6922 N.am      1 UNK        -0.4739 
      5 CA        -81.4339   28.1912  -75.3896 C.3       1 UNK         0.0864 
      6 C6        -81.0674   28.2444  -73.8842 C.3       11 UNK        -0.0881 
      7 S7        -79.5331   27.3458  -73.4843 S.3       11 UNK        -0.2682 
      8 C8        -78.8358   28.3868  -72.1566 C.3       11 UNK         0.0289 
      9 C9        -77.5575   27.7891  -71.5801 C.ar      11 UNK        -0.0687 
     10 C10       -77.5493   26.4621  -71.1444 C.ar      11 UNK        -0.0823 
     11 C11       -76.3858   25.8788  -70.6411 C.ar      11 UNK        -0.0830 
     12 C12       -75.2261   26.6491  -70.5310 C.ar      11 UNK        -0.1021 
     13 C13       -75.2282   27.9936  -70.9168 C.ar      11 UNK        -0.0753 
     14 C14       -76.3923   28.5560  -71.4556 C.ar      11 UNK        -0.0933 
     15 C15       -73.9812   28.8388  -70.6999 C.3       11 UNK         0.0166 
     16 S16       -72.9921   29.0112  -72.2169 S.3       11 UNK        -0.2615 
     17 C17       -73.3175   30.7467  -72.6907 C.3       11 UNK        -0.0865 
     18 CA        -73.5411   30.9327  -74.2185 C.3       10 UNK         0.0862 
     19 C         -73.9811   32.3814  -74.5924 C.2       10 UNK         0.5551 
     20 N         -73.6383   32.8915  -75.7693 N.am      10 UNK        -0.7319 
     21 O         -74.6706   33.0448  -73.8215 O.2       10 UNK        -0.5018 
     22 N         -72.4432   30.3924  -75.0424 N.am      10 UNK        -0.4509 
     23 C         -71.1698   30.8090  -75.0536 C.2       10 UNK         0.4899 
     24 O         -70.7398   31.7224  -74.3466 O.2       10 UNK        -0.4839 
     25 CA        -70.2284   30.0937  -76.0456 C.3       9 UNK         0.0222 
     26 CB        -68.7510   30.5127  -75.8858 C.3       9 UNK        -0.1966 
     27 N         -70.3593   28.6310  -76.0235 N.am      9 UNK        -0.4218 
     28 C         -70.1490   27.7984  -74.9925 C.2       9 UNK         0.5020 
     29 O         -69.7733   28.1696  -73.8792 O.2       9 UNK        -0.5274 
     30 CA        -70.3829   26.2931  -75.2592 C.3       8 UNK         0.0270 
     31 CB        -70.3802   25.4582  -73.9645 C.3       8 UNK        -0.1976 
     32 N         -71.6314   26.0349  -75.9850 N.am      8 UNK        -0.4313 
     33 C         -71.8093   26.1920  -77.3064 C.2       8 UNK         0.5041 
     34 O         -70.9050   26.5348  -78.0687 O.2       8 UNK        -0.5577 
     35 CA        -73.2327   26.0094  -77.8725 C.3       7 UNK         0.0284 
     36 CB        -73.4070   24.5901  -78.4345 C.3       7 UNK        -0.1958 
     37 N         -74.2923   26.2796  -76.8965 N.am      7 UNK        -0.4454 
     38 C         -74.4491   27.4405  -76.2412 C.2       7 UNK         0.5089 
     39 O         -73.8206   28.4598  -76.5265 O.2       7 UNK        -0.5125 
     40 CA        -75.4199   27.4747  -75.0424 C.3       6 UNK         0.0408 
     41 CB        -76.6596   28.3109  -75.3930 C.3       6 UNK        -0.1791 
     42 N         -75.8244   26.1531  -74.5433 N.am      6 UNK        -0.4762 
     43 C         -74.9868   25.2064  -74.0857 C.2       6 UNK         0.5007 
     44 O         -73.7870   25.4067  -73.8923 O.2       6 UNK        -0.5032 
     45 CA        -75.5223   23.7597  -73.9707 C.3       5 UNK         0.0783 
     46 C46       -75.4261   23.1637  -72.5389 C.3       11 UNK        -0.0857 
     47 S47       -76.9340   23.3045  -71.5194 S.3       11 UNK        -0.2512 
     48 C48       -76.4034   24.4275  -70.1880 C.3       11 UNK         0.0225 
     49 N         -76.8256   23.5406  -74.6161 N.am      5 UNK        -0.4615 
     50 C         -77.0664   23.6415  -75.9296 C.2       4 UNK         0.5053 
     51 O         -76.1902   23.9335  -76.7442 O.2       4 UNK        -0.5105 
     52 CA        -78.5070   23.4458  -76.4374 C.3       4 UNK         0.0263 
     53 CB        -78.6453   22.1233  -77.2171 C.3       4 UNK        -0.1981 
     54 N         -79.5705   23.5903  -75.4310 N.am      4 UNK        -0.4224 
     55 C         -79.8744   22.7786  -74.4043 C.2       3 UNK         0.4895 
     56 O         -79.2092   21.7897  -74.0982 O.2       3 UNK        -0.5091 
     57 CA        -81.1164   23.1239  -73.5566 C.3       3 UNK         0.0250 
     58 CB        -80.6956   23.6863  -72.1895 C.3       3 UNK        -0.1996 
     59 N         -82.0264   24.0741  -74.2012 N.am      3 UNK        -0.4254 
     60 C         -82.7935   23.8073  -75.2686 C.2       2 UNK         0.5004 
     61 O         -82.9033   22.6862  -75.7657 O.2       2 UNK        -0.5226 
     62 CA        -83.5466   24.9905  -75.9111 C.3       2 UNK         0.0269 
     63 CB        -85.0380   24.9432  -75.5408 C.3       2 UNK        -0.1926 
     64 N         -83.0140   26.3190  -75.5762 N.am      2 UNK        -0.4687 
     65 C         -81.7726   26.7546  -75.8447 C.2       1 UNK         0.5165 
     66 O         -80.9160   26.0673  -76.4039 O.2       1 UNK        -0.5079 
     67 H67       -83.7706   31.3653  -77.5495 H         1 UNK         0.0900 
     68 H68       -84.4744   30.7281  -76.0622 H         1 UNK         0.0900 
     69 H69       -84.8783   29.9918  -77.6142 H         1 UNK         0.0900 
     70 H70       -83.0211   29.4997  -74.8956 H         1 UNK         0.2959 
     71 H71       -80.5602   28.5108  -75.9629 H         1 UNK         0.1079 
     72 H72       -80.9390   29.2853  -73.5826 H         1 UNK         0.0837 
     73 H73       -81.8761   27.8512  -73.2653 H         1 UNK         0.0837 
     74 H74       -79.5697   28.4906  -71.3564 H         1 UNK         0.0685 
     75 H75       -78.6503   29.3880  -72.5486 H         1 UNK         0.0685 
     76 H76       -78.4510   25.8709  -71.2156 H         1 UNK         0.1434 
     77 H77       -74.3255   26.2095  -70.1244 H         1 UNK         0.1329 
     78 H78       -76.3913   29.5920  -71.7648 H         1 UNK         0.1335 
     79 H79       -74.2570   29.8139  -70.2970 H         1 UNK         0.0680 
     80 H80       -73.3501   28.3790  -69.9379 H         1 UNK         0.0680 
     81 H81       -74.1947   31.1017  -72.1482 H         1 UNK         0.1032 
     82 H82       -72.4848   31.3617  -72.3463 H         1 UNK         0.1032 
     83 H83       -74.4080   30.3265  -74.4796 H         1 UNK         0.0461 
     84 H84       -73.9339   33.8242  -76.0104 H         1 UNK         0.3453 
     85 H85       -73.0876   32.3508  -76.4164 H         1 UNK         0.3453 
     86 H86       -72.7248   29.6435  -75.6717 H         1 UNK         0.2984 
     87 H87       -70.5483   30.4069  -77.0404 H         1 UNK         0.0554 
     88 H88       -68.1160   30.0204  -76.6222 H         1 UNK         0.0847 
     89 H89       -68.3659   30.2700  -74.8948 H         1 UNK         0.0847 
     90 H90       -68.6322   31.5880  -76.0249 H         1 UNK         0.0847 
     91 H91       -70.6439   28.1977  -76.8966 H         1 UNK         0.3141 
     92 H92       -69.5482   25.9484  -75.8732 H         1 UNK         0.0743 
     93 H93       -69.4243   25.5418  -73.4459 H         1 UNK         0.0784 
     94 H94       -71.1564   25.7891  -73.2729 H         1 UNK         0.0784 
     95 H95       -70.5436   24.4005  -74.1714 H         1 UNK         0.0784 
     96 H96       -72.4360   25.8068  -75.4083 H         1 UNK         0.3213 
     97 H97       -73.3513   26.7217  -78.6915 H         1 UNK         0.0855 
     98 H98       -73.3344   23.8345  -77.6512 H         1 UNK         0.0814 
     99 H99       -72.6407   24.3663  -79.1781 H         1 UNK         0.0814 
    100 H100      -74.3749   24.4729  -78.9224 H         1 UNK         0.0814 
    101 H101      -74.8969   25.4996  -76.6573 H         1 UNK         0.3105 
    102 H102      -74.8935   27.9755  -74.2294 H         1 UNK         0.0547 
    103 H103      -77.3512   27.7682  -76.0381 H         1 UNK         0.0837 
    104 H104      -77.1910   28.6093  -74.4929 H         1 UNK         0.0837 
    105 H105      -76.3870   29.2330  -75.9086 H         1 UNK         0.0837 
    106 H106      -76.7956   25.9035  -74.6601 H         1 UNK         0.3020 
    107 H107      -74.8093   23.1870  -74.5693 H         1 UNK         0.1245 
    108 H108      -74.5680   23.5665  -71.9973 H         1 UNK         0.0781 
    109 H109      -75.2237   22.0950  -72.6243 H         1 UNK         0.0781 
    110 H110      -75.4294   24.1150  -69.8083 H         1 UNK         0.0836 
    111 H111      -77.1003   24.3327  -69.3543 H         1 UNK         0.0836 
    112 H112      -77.5796   23.2461  -74.0080 H         1 UNK         0.3022 
    113 H113      -78.6808   24.2570  -77.1463 H         1 UNK         0.0747 
    114 H114      -79.6455   22.0133  -77.6364 H         1 UNK         0.0793 
    115 H115      -77.9396   22.0866  -78.0481 H         1 UNK         0.0793 
    116 H116      -78.4466   21.2551  -76.5882 H         1 UNK         0.0793 
    117 H117      -80.1619   24.4039  -75.5760 H         1 UNK         0.3047 
    118 H118      -81.6620   22.1925  -73.3903 H         1 UNK         0.0822 
    119 H119      -80.0552   22.9815  -71.6573 H         1 UNK         0.0807 
    120 H120      -81.5599   23.8787  -71.5537 H         1 UNK         0.0807 
    121 H121      -80.1390   24.6172  -72.2929 H         1 UNK         0.0807 
    122 H122      -82.0095   25.0229  -73.8569 H         1 UNK         0.2946 
    123 H123      -83.4569   24.8671  -76.9928 H         1 UNK         0.1144 
    124 H124      -85.4766   23.9798  -75.8052 H         1 UNK         0.0793 
    125 H125      -85.6041   25.7093  -76.0712 H         1 UNK         0.0793 
    126 H126      -85.1930   25.0889  -74.4710 H         1 UNK         0.0793 
    127 H127      -83.6518   26.9583  -75.1240 H         1 UNK         0.2896 
@<TRIPOS>BOND
     1    1    2 1    
     2    1   67 1    
     3    1   68 1    
     4    1   69 1    
     5    2    3 2    
     6    2    4 am   BACKBONE|DICT|INTERRES
     7    4    5 1    
     8    4   70 1    
     9    5    6 1    
    10    5   65 1    
    11    5   71 1    
    12    6    7 1    
    13    6   72 1    
    14    6   73 1    
    15    7    8 1    
    16    8    9 1    
    17    8   74 1    
    18    8   75 1    
    19    9   10 ar   
    20    9   14 ar   
    21   10   11 ar   
    22   10   76 1    
    23   11   12 ar   
    24   11   48 1    
    25   12   13 ar   
    26   12   77 1    
    27   13   14 ar   
    28   13   15 1    
    29   14   78 1    
    30   15   16 1    
    31   15   79 1    
    32   15   80 1    
    33   16   17 1    
    34   17   18 1    
    35   17   81 1    
    36   17   82 1    
    37   18   19 1    
    38   18   22 1    
    39   18   83 1    
    40   19   20 am   BACKBONE|DICT|INTERRES
    41   19   21 2    
    42   20   84 1    
    43   20   85 1    
    44   22   23 am   BACKBONE|DICT|INTERRES
    45   22   86 1    
    46   23   24 2    
    47   23   25 1    
    48   25   26 1    
    49   25   27 1    
    50   25   87 1    
    51   26   88 1    
    52   26   89 1    
    53   26   90 1    
    54   27   28 am   BACKBONE|DICT|INTERRES
    55   27   91 1    
    56   28   29 2    
    57   28   30 1    
    58   30   31 1    
    59   30   32 1    
    60   30   92 1    
    61   31   93 1    
    62   31   94 1    
    63   31   95 1    
    64   32   33 am   BACKBONE|DICT|INTERRES
    65   32   96 1    
    66   33   34 2    
    67   33   35 1    
    68   35   36 1    
    69   35   37 1    
    70   35   97 1    
    71   36   98 1    
    72   36   99 1    
    73   36  100 1    
    74   37   38 am   BACKBONE|DICT|INTERRES
    75   37  101 1    
    76   38   39 2    
    77   38   40 1    
    78   40   41 1    
    79   40   42 1    
    80   40  102 1    
    81   41  103 1    
    82   41  104 1    
    83   41  105 1    
    84   42   43 am   BACKBONE|DICT|INTERRES
    85   42  106 1    
    86   43   44 2    
    87   43   45 1    
    88   45   46 1    
    89   45   49 1    
    90   45  107 1    
    91   46   47 1    
    92   46  108 1    
    93   46  109 1    
    94   47   48 1    
    95   48  110 1    
    96   48  111 1    
    97   49   50 am   BACKBONE|DICT|INTERRES
    98   49  112 1    
    99   50   51 2    
   100   50   52 1    
   101   52   53 1    
   102   52   54 1    
   103   52  113 1    
   104   53  114 1    
   105   53  115 1    
   106   53  116 1    
   107   54   55 am   BACKBONE|DICT|INTERRES
   108   54  117 1    
   109   55   56 2    
   110   55   57 1    
   111   57   58 1    
   112   57   59 1    
   113   57  118 1    
   114   58  119 1    
   115   58  120 1    
   116   58  121 1    
   117   59   60 am   BACKBONE|DICT|INTERRES
   118   59  122 1    
   119   60   61 2    
   120   60   62 1    
   121   62   63 1    
   122   62   64 1    
   123   62  123 1    
   124   63  124 1    
   125   63  125 1    
   126   63  126 1    
   127   64   65 am   BACKBONE|DICT|INTERRES
   128   64  127 1    
   129   65   66 2    
@<TRIPOS>SUBSTRUCTURE
     1 UNK         1 GROUP             0       ****    0 ROOT    
