@<TRIPOS>MOLECULE
3R135
127   129    1
SMALL
USER_CHARGES


@<TRIPOS>ATOM
      1 CA        -85.6743   28.5316  -73.0283 C.3       0 UNK        -0.1998 
      2 C         -84.4992   28.6658  -73.9851 C.2       0 UNK         0.4909 
      3 O         -84.7044   28.7744  -75.1942 O.2       0 UNK        -0.5240 
      4 N         -83.2718   28.6667  -73.4499 N.am      1 UNK        -0.4739 
      5 CA        -82.0120   28.7265  -74.2011 C.3       1 UNK         0.0864 
      6 C6        -80.7964   29.0495  -73.2911 C.3       11 UNK        -0.0881 
      7 S7        -80.7606   28.1030  -71.7256 S.3       11 UNK        -0.2682 
      8 C8        -79.5339   29.0493  -70.7723 C.3       11 UNK         0.0289 
      9 C9        -78.1227   28.7342  -71.2388 C.ar      11 UNK        -0.0687 
     10 C10       -77.4991   27.5612  -70.8089 C.ar      11 UNK        -0.0823 
     11 C11       -76.2189   27.2256  -71.2613 C.ar      11 UNK        -0.0830 
     12 C12       -75.5480   28.1024  -72.1213 C.ar      11 UNK        -0.1021 
     13 C13       -76.1503   29.2951  -72.5340 C.ar      11 UNK        -0.0753 
     14 C14       -77.4429   29.6016  -72.0980 C.ar      11 UNK        -0.0933 
     15 C15       -75.4008   30.2614  -73.4372 C.3       11 UNK         0.0166 
     16 S16       -74.4237   31.4295  -72.4423 S.3       11 UNK        -0.2615 
     17 C17       -73.8283   32.6024  -73.7115 C.3       11 UNK        -0.0865 
     18 CA        -72.3035   32.5667  -74.0337 C.3       10 UNK         0.0862 
     19 C         -71.3686   32.7749  -72.8013 C.2       10 UNK         0.5551 
     20 N         -70.2195   32.1168  -72.7186 N.am      10 UNK        -0.7319 
     21 O         -71.6623   33.5933  -71.9329 O.2       10 UNK        -0.5018 
     22 N         -71.9360   31.5115  -74.9970 N.am      10 UNK        -0.4509 
     23 C         -71.7907   30.1973  -74.7844 C.2       10 UNK         0.4899 
     24 O         -71.9114   29.6495  -73.6883 O.2       10 UNK        -0.4839 
     25 CA        -71.4624   29.3755  -76.0442 C.3       9 UNK         0.0222 
     26 CB        -70.0994   29.7640  -76.6590 C.3       9 UNK        -0.1966 
     27 N         -71.5739   27.9279  -75.8320 N.am      9 UNK        -0.4218 
     28 C         -70.7512   27.1069  -75.1575 C.2       9 UNK         0.5020 
     29 O         -69.6873   27.4604  -74.6457 O.2       9 UNK        -0.5274 
     30 CA        -71.1718   25.6273  -75.0224 C.3       8 UNK         0.0270 
     31 CB        -71.4743   25.2880  -73.5526 C.3       8 UNK        -0.1976 
     32 N         -72.3290   25.2662  -75.8488 N.am      8 UNK        -0.4313 
     33 C         -72.2885   25.0921  -77.1795 C.2       8 UNK         0.5041 
     34 O         -71.2435   25.1124  -77.8313 O.2       8 UNK        -0.5577 
     35 CA        -73.6237   24.8925  -77.9281 C.3       7 UNK         0.0284 
     36 CB        -73.8339   23.4034  -78.2479 C.3       7 UNK        -0.1958 
     37 N         -74.8064   25.4032  -77.2263 N.am      7 UNK        -0.4454 
     38 C         -74.9887   26.6624  -76.8018 C.2       7 UNK         0.5089 
     39 O         -74.2113   27.5841  -77.0486 O.2       7 UNK        -0.5125 
     40 CA        -76.1917   26.9276  -75.8782 C.3       6 UNK         0.0408 
     41 CB        -77.3776   27.4914  -76.6727 C.3       6 UNK        -0.1791 
     42 N         -76.6285   25.7621  -75.1004 N.am      6 UNK        -0.4762 
     43 C         -75.8622   25.0665  -74.2439 C.2       6 UNK         0.5007 
     44 O         -74.6611   25.2770  -74.0780 O.2       6 UNK        -0.5032 
     45 CA        -76.5426   23.9178  -73.4818 C.3       5 UNK         0.0783 
     46 C46       -77.4620   24.4457  -72.3503 C.3       11 UNK        -0.0857 
     47 S47       -76.6419   24.4785  -70.7190 S.3       11 UNK        -0.2512 
     48 C48       -75.5374   25.9345  -70.8155 C.3       11 UNK         0.0225 
     49 N         -77.2677   23.0731  -74.4292 N.am      5 UNK        -0.4615 
     50 C         -76.7271   22.0349  -75.0804 C.2       4 UNK         0.5053 
     51 O         -75.5861   21.6187  -74.8800 O.2       4 UNK        -0.5105 
     52 CA        -77.5972   21.3426  -76.1452 C.3       4 UNK         0.0263 
     53 CB        -78.3219   20.1297  -75.5399 C.3       4 UNK        -0.1981 
     54 N         -78.5814   22.2310  -76.7691 N.am      4 UNK        -0.4224 
     55 C         -78.2782   23.3005  -77.5181 C.2       3 UNK         0.4895 
     56 O         -77.1295   23.6513  -77.7849 O.2       3 UNK        -0.5091 
     57 CA        -79.4581   24.1491  -78.0163 C.3       3 UNK         0.0250 
     58 CB        -80.0051   23.5824  -79.3362 C.3       3 UNK        -0.1996 
     59 N         -80.5563   24.2948  -77.0528 N.am      3 UNK        -0.4254 
     60 C         -80.4472   24.7723  -75.8040 C.2       2 UNK         0.5004 
     61 O         -79.3763   25.0373  -75.2516 O.2       2 UNK        -0.5226 
     62 CA        -81.7624   24.9581  -75.0282 C.3       2 UNK         0.0269 
     63 CB        -81.8851   23.8880  -73.9313 C.3       2 UNK        -0.1926 
     64 N         -81.8842   26.2855  -74.4168 N.am      2 UNK        -0.4687 
     65 C         -81.7866   27.4620  -75.0554 C.2       1 UNK         0.5165 
     66 O         -81.5782   27.5782  -76.2644 O.2       1 UNK        -0.5079 
     67 H67       -86.2548   27.6417  -73.2700 H         1 UNK         0.0900 
     68 H68       -86.3283   29.3991  -73.1130 H         1 UNK         0.0900 
     69 H69       -85.3487   28.4525  -71.9911 H         1 UNK         0.0900 
     70 H70       -83.1632   28.5726  -72.4492 H         1 UNK         0.2959 
     71 H71       -82.1064   29.5522  -74.9105 H         1 UNK         0.1079 
     72 H72       -80.8237   30.1105  -73.0381 H         1 UNK         0.0837 
     73 H73       -79.8539   28.8992  -73.8224 H         1 UNK         0.0837 
     74 H74       -79.7430   30.1175  -70.8468 H         1 UNK         0.0685 
     75 H75       -79.6338   28.7923  -69.7167 H         1 UNK         0.0685 
     76 H76       -78.0266   26.8964  -70.1387 H         1 UNK         0.1434 
     77 H77       -74.5504   27.8637  -72.4660 H         1 UNK         0.1329 
     78 H78       -77.9159   30.5185  -72.4219 H         1 UNK         0.1335 
     79 H79       -74.7416   29.7151  -74.1133 H         1 UNK         0.0680 
     80 H80       -76.1062   30.8099  -74.0633 H         1 UNK         0.0680 
     81 H81       -74.0906   33.6017  -73.3595 H         1 UNK         0.1032 
     82 H82       -74.4019   32.4714  -74.6300 H         1 UNK         0.1032 
     83 H83       -72.1218   33.4734  -74.6123 H         1 UNK         0.0461 
     84 H84       -69.6138   32.2733  -71.9287 H         1 UNK         0.3453 
     85 H85       -69.9830   31.4248  -73.4113 H         1 UNK         0.3453 
     86 H86       -71.7851   31.8467  -75.9376 H         1 UNK         0.2984 
     87 H87       -72.2339   29.6116  -76.7788 H         1 UNK         0.0554 
     88 H88       -70.1058   30.7925  -77.0205 H         1 UNK         0.0847 
     89 H89       -69.2869   29.6849  -75.9362 H         1 UNK         0.0847 
     90 H90       -69.8530   29.1290  -77.5100 H         1 UNK         0.0847 
     91 H91       -72.4381   27.5322  -76.1901 H         1 UNK         0.3141 
     92 H92       -70.3230   25.0185  -75.3407 H         1 UNK         0.0743 
     93 H93       -70.5897   25.4296  -72.9304 H         1 UNK         0.0784 
     94 H94       -72.2595   25.9267  -73.1461 H         1 UNK         0.0784 
     95 H95       -71.7898   24.2509  -73.4373 H         1 UNK         0.0784 
     96 H96       -73.2267   25.2319  -75.3697 H         1 UNK         0.3213 
     97 H97       -73.5458   25.4390  -78.8701 H         1 UNK         0.0855 
     98 H98       -72.9646   22.9829  -78.7556 H         1 UNK         0.0814 
     99 H99       -74.6906   23.2564  -78.9057 H         1 UNK         0.0814 
    100 H100      -74.0010   22.8171  -77.3431 H         1 UNK         0.0814 
    101 H101      -75.5470   24.7326  -77.0458 H         1 UNK         0.3105 
    102 H102      -75.8808   27.6856  -75.1576 H         1 UNK         0.0547 
    103 H103      -77.1028   28.4197  -77.1751 H         1 UNK         0.0837 
    104 H104      -77.7115   26.7941  -77.4392 H         1 UNK         0.0837 
    105 H105      -78.2261   27.7112  -76.0240 H         1 UNK         0.0837 
    106 H106      -77.6135   25.5121  -75.1778 H         1 UNK         0.3020 
    107 H107      -75.7487   23.3185  -73.0292 H         1 UNK         0.1245 
    108 H108      -78.3185   23.7800  -72.2315 H         1 UNK         0.0781 
    109 H109      -77.9007   25.4182  -72.5828 H         1 UNK         0.0781 
    110 H110      -74.7029   25.6938  -71.4748 H         1 UNK         0.0836 
    111 H111      -75.1011   26.1004  -69.8299 H         1 UNK         0.0836 
    112 H112      -78.1881   23.3986  -74.6998 H         1 UNK         0.3022 
    113 H113      -76.9275   20.9862  -76.9309 H         1 UNK         0.0747 
    114 H114      -78.8740   19.5764  -76.2999 H         1 UNK         0.0793 
    115 H115      -77.6107   19.4354  -75.0898 H         1 UNK         0.0793 
    116 H116      -79.0252   20.4263  -74.7607 H         1 UNK         0.0793 
    117 H117      -79.5555   22.0260  -76.6010 H         1 UNK         0.3047 
    118 H118      -79.0755   25.1499  -78.2179 H         1 UNK         0.0822 
    119 H119      -80.7624   24.2378  -79.7669 H         1 UNK         0.0807 
    120 H120      -80.4510   22.5962  -79.2007 H         1 UNK         0.0807 
    121 H121      -79.2101   23.4815  -80.0768 H         1 UNK         0.0807 
    122 H122      -81.4801   24.0927  -77.4076 H         1 UNK         0.2946 
    123 H123      -82.5998   24.8449  -75.7198 H         1 UNK         0.1144 
    124 H124      -82.8414   23.9576  -73.4125 H         1 UNK         0.0793 
    125 H125      -81.0920   23.9820  -73.1877 H         1 UNK         0.0793 
    126 H126      -81.8195   22.8840  -74.3528 H         1 UNK         0.0793 
    127 H127      -82.0276   26.3109  -73.4175 H         1 UNK         0.2896 
@<TRIPOS>BOND
     1    1    2 1    
     2    1   67 1    
     3    1   68 1    
     4    1   69 1    
     5    2    3 2    
     6    2    4 am   BACKBONE|DICT|INTERRES
     7    4    5 1    
     8    4   70 1    
     9    5    6 1    
    10    5   65 1    
    11    5   71 1    
    12    6    7 1    
    13    6   72 1    
    14    6   73 1    
    15    7    8 1    
    16    8    9 1    
    17    8   74 1    
    18    8   75 1    
    19    9   10 ar   
    20    9   14 ar   
    21   10   11 ar   
    22   10   76 1    
    23   11   12 ar   
    24   11   48 1    
    25   12   13 ar   
    26   12   77 1    
    27   13   14 ar   
    28   13   15 1    
    29   14   78 1    
    30   15   16 1    
    31   15   79 1    
    32   15   80 1    
    33   16   17 1    
    34   17   18 1    
    35   17   81 1    
    36   17   82 1    
    37   18   19 1    
    38   18   22 1    
    39   18   83 1    
    40   19   20 am   BACKBONE|DICT|INTERRES
    41   19   21 2    
    42   20   84 1    
    43   20   85 1    
    44   22   23 am   BACKBONE|DICT|INTERRES
    45   22   86 1    
    46   23   24 2    
    47   23   25 1    
    48   25   26 1    
    49   25   27 1    
    50   25   87 1    
    51   26   88 1    
    52   26   89 1    
    53   26   90 1    
    54   27   28 am   BACKBONE|DICT|INTERRES
    55   27   91 1    
    56   28   29 2    
    57   28   30 1    
    58   30   31 1    
    59   30   32 1    
    60   30   92 1    
    61   31   93 1    
    62   31   94 1    
    63   31   95 1    
    64   32   33 am   BACKBONE|DICT|INTERRES
    65   32   96 1    
    66   33   34 2    
    67   33   35 1    
    68   35   36 1    
    69   35   37 1    
    70   35   97 1    
    71   36   98 1    
    72   36   99 1    
    73   36  100 1    
    74   37   38 am   BACKBONE|DICT|INTERRES
    75   37  101 1    
    76   38   39 2    
    77   38   40 1    
    78   40   41 1    
    79   40   42 1    
    80   40  102 1    
    81   41  103 1    
    82   41  104 1    
    83   41  105 1    
    84   42   43 am   BACKBONE|DICT|INTERRES
    85   42  106 1    
    86   43   44 2    
    87   43   45 1    
    88   45   46 1    
    89   45   49 1    
    90   45  107 1    
    91   46   47 1    
    92   46  108 1    
    93   46  109 1    
    94   47   48 1    
    95   48  110 1    
    96   48  111 1    
    97   49   50 am   BACKBONE|DICT|INTERRES
    98   49  112 1    
    99   50   51 2    
   100   50   52 1    
   101   52   53 1    
   102   52   54 1    
   103   52  113 1    
   104   53  114 1    
   105   53  115 1    
   106   53  116 1    
   107   54   55 am   BACKBONE|DICT|INTERRES
   108   54  117 1    
   109   55   56 2    
   110   55   57 1    
   111   57   58 1    
   112   57   59 1    
   113   57  118 1    
   114   58  119 1    
   115   58  120 1    
   116   58  121 1    
   117   59   60 am   BACKBONE|DICT|INTERRES
   118   59  122 1    
   119   60   61 2    
   120   60   62 1    
   121   62   63 1    
   122   62   64 1    
   123   62  123 1    
   124   63  124 1    
   125   63  125 1    
   126   63  126 1    
   127   64   65 am   BACKBONE|DICT|INTERRES
   128   64  127 1    
   129   65   66 2    
@<TRIPOS>SUBSTRUCTURE
     1 UNK         1 GROUP             0       ****    0 ROOT    
