@<TRIPOS>MOLECULE
3R135
127   129    1
SMALL
USER_CHARGES


@<TRIPOS>ATOM
      1 CA        -84.2208   28.4333  -74.4848 C.3       0 UNK        -0.1998 
      2 C         -83.3793   28.3234  -73.2158 C.2       0 UNK         0.4909 
      3 O         -83.9423   28.2195  -72.1279 O.2       0 UNK        -0.5240 
      4 N         -82.0403   28.3492  -73.2875 N.am      1 UNK        -0.4739 
      5 CA        -81.2112   28.4129  -74.5005 C.3       1 UNK         0.0864 
      6 C6        -79.7428   28.7903  -74.1754 C.3       11 UNK        -0.0881 
      7 S7        -79.5994   30.5104  -73.5848 S.3       11 UNK        -0.2682 
      8 C8        -79.6057   30.3128  -71.7753 C.3       11 UNK         0.0289 
      9 C9        -78.2403   29.9181  -71.2354 C.ar      11 UNK        -0.0687 
     10 C10       -77.9584   28.5868  -70.9103 C.ar      11 UNK        -0.0823 
     11 C11       -76.7156   28.2395  -70.3719 C.ar      11 UNK        -0.0830 
     12 C12       -75.7576   29.2330  -70.1540 C.ar      11 UNK        -0.1021 
     13 C13       -76.0228   30.5633  -70.4894 C.ar      11 UNK        -0.0753 
     14 C14       -77.2674   30.9004  -71.0277 C.ar      11 UNK        -0.0933 
     15 C15       -74.9623   31.6323  -70.2716 C.3       11 UNK         0.0166 
     16 S16       -73.4780   31.3343  -71.2831 S.3       11 UNK        -0.2615 
     17 C17       -74.1377   31.4917  -72.9810 C.3       11 UNK        -0.0865 
     18 CA        -74.5180   30.1325  -73.6443 C.3       10 UNK         0.0862 
     19 C         -75.0783   30.3395  -75.0784 C.2       10 UNK         0.5551 
     20 N         -76.2699   30.9095  -75.1927 N.am      10 UNK        -0.7319 
     21 O         -74.4652   29.9966  -76.0875 O.2       10 UNK        -0.5018 
     22 N         -73.4705   29.1014  -73.5619 N.am      10 UNK        -0.4509 
     23 C         -72.1911   29.1979  -73.9439 C.2       10 UNK         0.4899 
     24 O         -71.6764   30.2017  -74.4373 O.2       10 UNK        -0.4839 
     25 CA        -71.3369   27.9422  -73.7394 C.3       9 UNK         0.0222 
     26 CB        -71.4748   27.3452  -72.3247 C.3       9 UNK        -0.1966 
     27 N         -71.7066   26.9560  -74.7469 N.am      9 UNK        -0.4218 
     28 C         -70.8704   26.0892  -75.3299 C.2       9 UNK         0.5020 
     29 O         -69.6871   25.9524  -75.0150 O.2       9 UNK        -0.5274 
     30 CA        -71.4452   25.2481  -76.4840 C.3       8 UNK         0.0270 
     31 CB        -72.1438   23.9877  -75.9473 C.3       8 UNK        -0.1976 
     32 N         -72.3804   26.0085  -77.3160 N.am      8 UNK        -0.4313 
     33 C         -72.0619   27.0618  -78.0804 C.2       8 UNK         0.5041 
     34 O         -70.9044   27.4412  -78.2636 O.2       8 UNK        -0.5577 
     35 CA        -73.2124   27.8554  -78.7297 C.3       7 UNK         0.0284 
     36 CB        -73.4322   27.4312  -80.1955 C.3       7 UNK        -0.1958 
     37 N         -74.4662   27.8488  -77.9601 N.am      7 UNK        -0.4454 
     38 C         -75.3105   26.8323  -77.7460 C.2       7 UNK         0.5089 
     39 O         -75.1586   25.6991  -78.2047 O.2       7 UNK        -0.5125 
     40 CA        -76.4988   27.1143  -76.8139 C.3       6 UNK         0.0408 
     41 CB        -77.8144   27.0826  -77.6042 C.3       6 UNK        -0.1791 
     42 N         -76.5646   26.1571  -75.7064 N.am      6 UNK        -0.4762 
     43 C         -75.5935   25.9554  -74.8019 C.2       6 UNK         0.5007 
     44 O         -74.5326   26.5810  -74.7950 O.2       6 UNK        -0.5032 
     45 CA        -75.8211   24.8727  -73.7332 C.3       5 UNK         0.0783 
     46 C46       -76.5221   25.4497  -72.4756 C.3       11 UNK        -0.0857 
     47 S47       -75.3115   26.0249  -71.2419 S.3       11 UNK        -0.2512 
     48 C48       -76.3988   26.7983  -70.0063 C.3       11 UNK         0.0225 
     49 N         -76.5443   23.7203  -74.2799 N.am      5 UNK        -0.4615 
     50 C         -76.0656   22.4675  -74.3072 C.2       4 UNK         0.5053 
     51 O         -74.9493   22.1528  -73.8937 O.2       4 UNK        -0.5105 
     52 CA        -76.9775   21.3579  -74.8670 C.3       4 UNK         0.0263 
     53 CB        -77.6485   20.5893  -73.7168 C.3       4 UNK        -0.1981 
     54 N         -78.0127   21.8528  -75.7738 N.am      4 UNK        -0.4224 
     55 C         -77.7873   22.3305  -77.0049 C.2       3 UNK         0.4895 
     56 O         -76.6888   22.2952  -77.5588 O.2       3 UNK        -0.5091 
     57 CA        -78.9812   22.9676  -77.7432 C.3       3 UNK         0.0250 
     58 CB        -79.5161   22.0074  -78.8186 C.3       3 UNK        -0.1996 
     59 N         -80.1000   23.3994  -76.8907 N.am      3 UNK        -0.4254 
     60 C         -80.0287   24.2747  -75.8778 C.2       2 UNK         0.5004 
     61 O         -78.9737   24.7582  -75.4590 O.2       2 UNK        -0.5226 
     62 CA        -81.3516   24.6144  -75.1721 C.3       2 UNK         0.0269 
     63 CB        -81.6310   23.5972  -74.0538 C.3       2 UNK        -0.1926 
     64 N         -81.3355   25.9599  -74.5932 N.am      2 UNK        -0.4687 
     65 C         -81.2698   27.0969  -75.3009 C.2       1 UNK         0.5165 
     66 O         -81.2964   27.1391  -76.5311 O.2       1 UNK        -0.5079 
     67 H67       -85.2691   28.5901  -74.2312 H         1 UNK         0.0900 
     68 H68       -84.1574   27.5186  -75.0731 H         1 UNK         0.0900 
     69 H69       -83.9073   29.2746  -75.1014 H         1 UNK         0.0900 
     70 H70       -81.5260   28.2924  -72.4219 H         1 UNK         0.2959 
     71 H71       -81.6113   29.1930  -75.1512 H         1 UNK         0.1079 
     72 H72       -79.3050   28.1009  -73.4522 H         1 UNK         0.0837 
     73 H73       -79.1200   28.7173  -75.0690 H         1 UNK         0.0837 
     74 H74       -79.9072   31.2609  -71.3272 H         1 UNK         0.0685 
     75 H75       -80.3633   29.5895  -71.4745 H         1 UNK         0.0685 
     76 H76       -78.7080   27.8233  -71.0651 H         1 UNK         0.1434 
     77 H77       -74.7938   28.9681  -69.7403 H         1 UNK         0.1329 
     78 H78       -77.4847   31.9289  -71.2821 H         1 UNK         0.1335 
     79 H79       -75.3534   32.6270  -70.4910 H         1 UNK         0.0680 
     80 H80       -74.6760   31.6393  -69.2190 H         1 UNK         0.0680 
     81 H81       -73.3882   32.0089  -73.5822 H         1 UNK         0.1032 
     82 H82       -75.0011   32.1586  -72.9589 H         1 UNK         0.1032 
     83 H83       -75.3434   29.7061  -73.0740 H         1 UNK         0.0461 
     84 H84       -76.8104   31.1649  -74.3810 H         1 UNK         0.3453 
     85 H85       -76.6497   31.0668  -76.1122 H         1 UNK         0.3453 
     86 H86       -73.7975   28.1983  -73.2477 H         1 UNK         0.2984 
     87 H87       -70.2956   28.2378  -73.8855 H         1 UNK         0.0554 
     88 H88       -70.7406   26.5565  -72.1600 H         1 UNK         0.0847 
     89 H89       -72.4621   26.9155  -72.1534 H         1 UNK         0.0847 
     90 H90       -71.3096   28.1064  -71.5609 H         1 UNK         0.0847 
     91 H91       -72.6823   26.9661  -75.0388 H         1 UNK         0.3141 
     92 H92       -70.6118   24.9361  -77.1170 H         1 UNK         0.0743 
     93 H93       -72.9969   24.2334  -75.3142 H         1 UNK         0.0784 
     94 H94       -72.5026   23.3554  -76.7597 H         1 UNK         0.0784 
     95 H95       -71.4576   23.3873  -75.3485 H         1 UNK         0.0784 
     96 H96       -73.3585   25.7412  -77.2833 H         1 UNK         0.3213 
     97 H97       -72.8918   28.8986  -78.7379 H         1 UNK         0.0855 
     98 H98       -72.5214   27.5731  -80.7787 H         1 UNK         0.0814 
     99 H99       -74.2150   28.0246  -80.6678 H         1 UNK         0.0814 
    100 H100      -73.7073   26.3799  -80.2825 H         1 UNK         0.0814 
    101 H101      -74.6230   28.7009  -77.4224 H         1 UNK         0.3105 
    102 H102      -76.3924   28.1079  -76.3795 H         1 UNK         0.0547 
    103 H103      -77.8089   27.8253  -78.4029 H         1 UNK         0.0837 
    104 H104      -77.9838   26.1099  -78.0649 H         1 UNK         0.0837 
    105 H105      -78.6673   27.3011  -76.9651 H         1 UNK         0.0837 
    106 H106      -77.4200   25.6084  -75.6429 H         1 UNK         0.3020 
    107 H107      -74.8194   24.5454  -73.4449 H         1 UNK         0.1245 
    108 H108      -77.1224   24.6787  -71.9895 H         1 UNK         0.0781 
    109 H109      -77.2177   26.2543  -72.7239 H         1 UNK         0.0781 
    110 H110      -75.8988   26.7756  -69.0368 H         1 UNK         0.0836 
    111 H111      -77.3110   26.2109  -69.8897 H         1 UNK         0.0836 
    112 H112      -77.4642   23.9098  -74.6671 H         1 UNK         0.3022 
    113 H113      -76.3439   20.6617  -75.4208 H         1 UNK         0.0747 
    114 H114      -78.2397   19.7524  -74.0893 H         1 UNK         0.0793 
    115 H115      -76.9025   20.1779  -73.0351 H         1 UNK         0.0793 
    116 H116      -78.3060   21.2323  -73.1300 H         1 UNK         0.0793 
    117 H117      -78.9510   21.9107  -75.4071 H         1 UNK         0.3047 
    118 H118      -78.5973   23.8564  -78.2461 H         1 UNK         0.0822 
    119 H119      -80.2814   22.4830  -79.4324 H         1 UNK         0.0807 
    120 H120      -79.9477   21.1079  -78.3777 H         1 UNK         0.0807 
    121 H121      -78.7185   21.6893  -79.4918 H         1 UNK         0.0807 
    122 H122      -81.0070   23.0308  -77.1399 H         1 UNK         0.2946 
    123 H123      -82.1604   24.5720  -75.9053 H         1 UNK         0.1144 
    124 H124      -81.6926   22.5825  -74.4497 H         1 UNK         0.0793 
    125 H125      -82.5788   23.8047  -73.5565 H         1 UNK         0.0793 
    126 H126      -80.8460   23.6045  -73.2960 H         1 UNK         0.0793 
    127 H127      -81.3125   26.0204  -73.5860 H         1 UNK         0.2896 
@<TRIPOS>BOND
     1    1    2 1    
     2    1   67 1    
     3    1   68 1    
     4    1   69 1    
     5    2    3 2    
     6    2    4 am   BACKBONE|DICT|INTERRES
     7    4    5 1    
     8    4   70 1    
     9    5    6 1    
    10    5   65 1    
    11    5   71 1    
    12    6    7 1    
    13    6   72 1    
    14    6   73 1    
    15    7    8 1    
    16    8    9 1    
    17    8   74 1    
    18    8   75 1    
    19    9   10 ar   
    20    9   14 ar   
    21   10   11 ar   
    22   10   76 1    
    23   11   12 ar   
    24   11   48 1    
    25   12   13 ar   
    26   12   77 1    
    27   13   14 ar   
    28   13   15 1    
    29   14   78 1    
    30   15   16 1    
    31   15   79 1    
    32   15   80 1    
    33   16   17 1    
    34   17   18 1    
    35   17   81 1    
    36   17   82 1    
    37   18   19 1    
    38   18   22 1    
    39   18   83 1    
    40   19   20 am   BACKBONE|DICT|INTERRES
    41   19   21 2    
    42   20   84 1    
    43   20   85 1    
    44   22   23 am   BACKBONE|DICT|INTERRES
    45   22   86 1    
    46   23   24 2    
    47   23   25 1    
    48   25   26 1    
    49   25   27 1    
    50   25   87 1    
    51   26   88 1    
    52   26   89 1    
    53   26   90 1    
    54   27   28 am   BACKBONE|DICT|INTERRES
    55   27   91 1    
    56   28   29 2    
    57   28   30 1    
    58   30   31 1    
    59   30   32 1    
    60   30   92 1    
    61   31   93 1    
    62   31   94 1    
    63   31   95 1    
    64   32   33 am   BACKBONE|DICT|INTERRES
    65   32   96 1    
    66   33   34 2    
    67   33   35 1    
    68   35   36 1    
    69   35   37 1    
    70   35   97 1    
    71   36   98 1    
    72   36   99 1    
    73   36  100 1    
    74   37   38 am   BACKBONE|DICT|INTERRES
    75   37  101 1    
    76   38   39 2    
    77   38   40 1    
    78   40   41 1    
    79   40   42 1    
    80   40  102 1    
    81   41  103 1    
    82   41  104 1    
    83   41  105 1    
    84   42   43 am   BACKBONE|DICT|INTERRES
    85   42  106 1    
    86   43   44 2    
    87   43   45 1    
    88   45   46 1    
    89   45   49 1    
    90   45  107 1    
    91   46   47 1    
    92   46  108 1    
    93   46  109 1    
    94   47   48 1    
    95   48  110 1    
    96   48  111 1    
    97   49   50 am   BACKBONE|DICT|INTERRES
    98   49  112 1    
    99   50   51 2    
   100   50   52 1    
   101   52   53 1    
   102   52   54 1    
   103   52  113 1    
   104   53  114 1    
   105   53  115 1    
   106   53  116 1    
   107   54   55 am   BACKBONE|DICT|INTERRES
   108   54  117 1    
   109   55   56 2    
   110   55   57 1    
   111   57   58 1    
   112   57   59 1    
   113   57  118 1    
   114   58  119 1    
   115   58  120 1    
   116   58  121 1    
   117   59   60 am   BACKBONE|DICT|INTERRES
   118   59  122 1    
   119   60   61 2    
   120   60   62 1    
   121   62   63 1    
   122   62   64 1    
   123   62  123 1    
   124   63  124 1    
   125   63  125 1    
   126   63  126 1    
   127   64   65 am   BACKBONE|DICT|INTERRES
   128   64  127 1    
   129   65   66 2    
@<TRIPOS>SUBSTRUCTURE
     1 UNK         1 GROUP             0       ****    0 ROOT    
