@<TRIPOS>MOLECULE
3R135
127   129    1
SMALL
USER_CHARGES


@<TRIPOS>ATOM
      1 CA        -77.5648   30.7614  -76.8303 C.3       0 UNK        -0.1998 
      2 C         -78.5060   29.7997  -76.1221 C.2       0 UNK         0.4909 
      3 O         -79.6846   29.7315  -76.4735 O.2       0 UNK        -0.5240 
      4 N         -77.9868   29.0414  -75.1471 N.am      1 UNK        -0.4739 
      5 CA        -78.6499   28.0087  -74.3390 C.3       1 UNK         0.0864 
      6 C6        -79.9034   28.4787  -73.5533 C.3       11 UNK        -0.0881 
      7 S7        -79.5767   29.9012  -72.4593 S.3       11 UNK        -0.2682 
      8 C8        -79.4963   29.1204  -70.8170 C.3       11 UNK         0.0289 
      9 C9        -78.1392   28.4826  -70.5601 C.ar      11 UNK        -0.0687 
     10 C10       -77.9243   27.1299  -70.8433 C.ar      11 UNK        -0.0823 
     11 C11       -76.6799   26.5413  -70.5957 C.ar      11 UNK        -0.0830 
     12 C12       -75.6534   27.3180  -70.0472 C.ar      11 UNK        -0.1021 
     13 C13       -75.8528   28.6711  -69.7661 C.ar      11 UNK        -0.0753 
     14 C14       -77.1010   29.2473  -70.0188 C.ar      11 UNK        -0.0933 
     15 C15       -74.7165   29.4975  -69.1818 C.3       11 UNK         0.0166 
     16 S16       -73.5995   30.1226  -70.4787 S.3       11 UNK        -0.2615 
     17 C17       -74.5968   31.4722  -71.1947 C.3       11 UNK        -0.0865 
     18 CA        -75.2878   31.0725  -72.5261 C.3       10 UNK         0.0862 
     19 C         -76.3402   32.1412  -72.9479 C.2       10 UNK         0.5551 
     20 N         -76.3112   32.6640  -74.1687 N.am      10 UNK        -0.7319 
     21 O         -77.1951   32.5136  -72.1491 O.2       10 UNK        -0.5018 
     22 N         -74.3026   30.7803  -73.5822 N.am      10 UNK        -0.4509 
     23 C         -74.3865   29.7759  -74.4618 C.2       10 UNK         0.4899 
     24 O         -75.2447   28.8931  -74.4215 O.2       10 UNK        -0.4839 
     25 CA        -73.4148   29.8080  -75.6538 C.3       9 UNK         0.0222 
     26 CB        -72.3435   30.9241  -75.6015 C.3       9 UNK        -0.1966 
     27 N         -72.8235   28.4970  -75.9264 N.am      9 UNK        -0.4218 
     28 C         -71.8738   27.8573  -75.2258 C.2       9 UNK         0.5020 
     29 O         -71.4026   28.2823  -74.1702 O.2       9 UNK        -0.5274 
     30 CA        -71.3149   26.5376  -75.8069 C.3       8 UNK         0.0270 
     31 CB        -71.3362   25.3947  -74.7764 C.3       8 UNK        -0.1976 
     32 N         -71.9841   26.1026  -77.0384 N.am      8 UNK        -0.4313 
     33 C         -71.7516   26.6175  -78.2556 C.2       8 UNK         0.5041 
     34 O         -70.8661   27.4417  -78.4856 O.2       8 UNK        -0.5577 
     35 CA        -72.6768   26.1816  -79.4090 C.3       7 UNK         0.0284 
     36 CB        -71.9849   25.1198  -80.2790 C.3       7 UNK        -0.1958 
     37 N         -73.9838   25.6727  -78.9805 N.am      7 UNK        -0.4454 
     38 C         -74.9103   26.3570  -78.2935 C.2       7 UNK         0.5089 
     39 O         -74.7782   27.5329  -77.9532 O.2       7 UNK        -0.5125 
     40 CA        -76.1784   25.5859  -77.8716 C.3       6 UNK         0.0408 
     41 CB        -76.4986   24.3791  -78.7809 C.3       6 UNK        -0.1791 
     42 N         -76.1511   25.1526  -76.4674 N.am      6 UNK        -0.4762 
     43 C         -75.1576   24.5160  -75.8281 C.2       6 UNK         0.5007 
     44 O         -74.0814   24.2167  -76.3474 O.2       6 UNK        -0.5032 
     45 CA        -75.4089   24.1257  -74.3635 C.3       5 UNK         0.0783 
     46 C46       -75.1794   25.3162  -73.4016 C.3       11 UNK        -0.0857 
     47 S47       -74.8807   24.7047  -71.7109 S.3       11 UNK        -0.2512 
     48 C48       -76.4661   25.0589  -70.8822 C.3       11 UNK         0.0225 
     49 N         -76.7384   23.5377  -74.1813 N.am      5 UNK        -0.4615 
     50 C         -77.0363   22.2554  -74.4159 C.2       4 UNK         0.5053 
     51 O         -76.2398   21.4457  -74.8906 O.2       4 UNK        -0.5105 
     52 CA        -78.4366   21.7749  -74.0139 C.3       4 UNK         0.0263 
     53 CB        -78.4594   21.4175  -72.5134 C.3       4 UNK        -0.1981 
     54 N         -79.4986   22.7366  -74.3329 N.am      4 UNK        -0.4224 
     55 C         -80.7953   22.3998  -74.4314 C.2       3 UNK         0.4895 
     56 O         -81.2158   21.2541  -74.2623 O.2       3 UNK        -0.5091 
     57 CA        -81.8149   23.5071  -74.7649 C.3       3 UNK         0.0250 
     58 CB        -82.4833   24.0193  -73.4783 C.3       3 UNK        -0.1996 
     59 N         -81.2524   24.6448  -75.4915 N.am      3 UNK        -0.4254 
     60 C         -80.7278   24.5975  -76.7226 C.2       2 UNK         0.5004 
     61 O         -80.7317   23.5889  -77.4285 O.2       2 UNK        -0.5226 
     62 CA        -80.0662   25.8810  -77.2574 C.3       2 UNK         0.0269 
     63 CB        -80.9528   26.5351  -78.3291 C.3       2 UNK        -0.1926 
     64 N         -79.7148   26.8975  -76.2546 N.am      2 UNK        -0.4687 
     65 C         -78.9546   26.7443  -75.1618 C.2       1 UNK         0.5165 
     66 O         -78.4921   25.6611  -74.8014 O.2       1 UNK        -0.5079 
     67 H67       -77.8628   31.7903  -76.6321 H         1 UNK         0.0900 
     68 H68       -76.5337   30.6340  -76.5049 H         1 UNK         0.0900 
     69 H69       -77.6003   30.5962  -77.9067 H         1 UNK         0.0900 
     70 H70       -76.9921   29.1219  -74.9439 H         1 UNK         0.2959 
     71 H71       -77.8996   27.7144  -73.6040 H         1 UNK         0.1079 
     72 H72       -80.3093   27.6588  -72.9582 H         1 UNK         0.0837 
     73 H73       -80.7036   28.7674  -74.2365 H         1 UNK         0.0837 
     74 H74       -80.2971   28.3877  -70.7072 H         1 UNK         0.0685 
     75 H75       -79.6864   29.8853  -70.0625 H         1 UNK         0.0685 
     76 H76       -78.7297   26.5350  -71.2516 H         1 UNK         0.1434 
     77 H77       -74.6900   26.8709  -69.8432 H         1 UNK         0.1329 
     78 H78       -77.2646   30.2943  -69.8030 H         1 UNK         0.1335 
     79 H79       -74.1375   28.8819  -68.4917 H         1 UNK         0.0680 
     80 H80       -75.1050   30.3274  -68.5895 H         1 UNK         0.0680 
     81 H81       -73.9460   32.3341  -71.3510 H         1 UNK         0.1032 
     82 H82       -75.3305   31.7920  -70.4528 H         1 UNK         0.1032 
     83 H83       -75.8688   30.1693  -72.3352 H         1 UNK         0.0461 
     84 H84       -76.9943   33.3622  -74.4157 H         1 UNK         0.3453 
     85 H85       -75.6003   32.3967  -74.8278 H         1 UNK         0.3453 
     86 H86       -73.5612   31.4560  -73.6912 H         1 UNK         0.2984 
     87 H87       -74.0383   30.0171  -76.5240 H         1 UNK         0.0554 
     88 H88       -71.6943   30.8819  -76.4763 H         1 UNK         0.0847 
     89 H89       -71.7078   30.8481  -74.7186 H         1 UNK         0.0847 
     90 H90       -72.8000   31.9145  -75.5986 H         1 UNK         0.0847 
     91 H91       -73.2184   28.0254  -76.7336 H         1 UNK         0.3141 
     92 H92       -70.2670   26.7337  -76.0435 H         1 UNK         0.0743 
     93 H93       -72.3484   25.1227  -74.4868 H         1 UNK         0.0784 
     94 H94       -70.8530   24.5005  -75.1705 H         1 UNK         0.0784 
     95 H95       -70.8021   25.6736  -73.8672 H         1 UNK         0.0784 
     96 H96       -72.7300   25.4174  -76.9309 H         1 UNK         0.3213 
     97 H97       -72.8577   27.0650  -80.0250 H         1 UNK         0.0855 
     98 H98       -71.8011   24.1996  -79.7228 H         1 UNK         0.0814 
     99 H99       -71.0205   25.4795  -80.6407 H         1 UNK         0.0814 
    100 H100      -72.5837   24.8708  -81.1554 H         1 UNK         0.0814 
    101 H101      -74.1680   24.6979  -79.1686 H         1 UNK         0.3105 
    102 H102      -76.9964   26.3007  -77.9622 H         1 UNK         0.0547 
    103 H103      -77.4739   23.9558  -78.5412 H         1 UNK         0.0837 
    104 H104      -75.7673   23.5767  -78.6770 H         1 UNK         0.0837 
    105 H105      -76.5281   24.6715  -79.8315 H         1 UNK         0.0837 
    106 H106      -76.9870   25.3524  -75.9265 H         1 UNK         0.3020 
    107 H107      -74.6618   23.3613  -74.1330 H         1 UNK         0.1245 
    108 H108      -76.0216   26.0100  -73.4153 H         1 UNK         0.0781 
    109 H109      -74.3102   25.9088  -73.6900 H         1 UNK         0.0781 
    110 H110      -76.4896   24.5193  -69.9347 H         1 UNK         0.0836 
    111 H111      -77.2803   24.6551  -71.4852 H         1 UNK         0.0836 
    112 H112      -77.4576   24.1720  -73.8607 H         1 UNK         0.3022 
    113 H113      -78.6231   20.8627  -74.5855 H         1 UNK         0.0747 
    114 H114      -79.3878   20.9208  -72.2320 H         1 UNK         0.0793 
    115 H115      -77.6450   20.7374  -72.2596 H         1 UNK         0.0793 
    116 H116      -78.3520   22.3035  -71.8870 H         1 UNK         0.0793 
    117 H117      -79.2232   23.6906  -74.5370 H         1 UNK         0.3047 
    118 H118      -82.5845   23.0589  -75.3971 H         1 UNK         0.0822 
    119 H119      -83.2722   24.7388  -73.6987 H         1 UNK         0.0807 
    120 H120      -81.7645   24.4997  -72.8130 H         1 UNK         0.0807 
    121 H121      -82.9423   23.1994  -72.9238 H         1 UNK         0.0807 
    122 H122      -81.2086   25.5236  -74.9979 H         1 UNK         0.2946 
    123 H123      -79.1413   25.5627  -77.7362 H         1 UNK         0.1144 
    124 H124      -80.4451   27.3737  -78.8062 H         1 UNK         0.0793 
    125 H125      -81.8871   26.9056  -77.9055 H         1 UNK         0.0793 
    126 H126      -81.2094   25.8245  -79.1163 H         1 UNK         0.0793 
    127 H127      -79.9978   27.8523  -76.4646 H         1 UNK         0.2896 
@<TRIPOS>BOND
     1    1    2 1    
     2    1   67 1    
     3    1   68 1    
     4    1   69 1    
     5    2    3 2    
     6    2    4 am   BACKBONE|DICT|INTERRES
     7    4    5 1    
     8    4   70 1    
     9    5    6 1    
    10    5   65 1    
    11    5   71 1    
    12    6    7 1    
    13    6   72 1    
    14    6   73 1    
    15    7    8 1    
    16    8    9 1    
    17    8   74 1    
    18    8   75 1    
    19    9   10 ar   
    20    9   14 ar   
    21   10   11 ar   
    22   10   76 1    
    23   11   12 ar   
    24   11   48 1    
    25   12   13 ar   
    26   12   77 1    
    27   13   14 ar   
    28   13   15 1    
    29   14   78 1    
    30   15   16 1    
    31   15   79 1    
    32   15   80 1    
    33   16   17 1    
    34   17   18 1    
    35   17   81 1    
    36   17   82 1    
    37   18   19 1    
    38   18   22 1    
    39   18   83 1    
    40   19   20 am   BACKBONE|DICT|INTERRES
    41   19   21 2    
    42   20   84 1    
    43   20   85 1    
    44   22   23 am   BACKBONE|DICT|INTERRES
    45   22   86 1    
    46   23   24 2    
    47   23   25 1    
    48   25   26 1    
    49   25   27 1    
    50   25   87 1    
    51   26   88 1    
    52   26   89 1    
    53   26   90 1    
    54   27   28 am   BACKBONE|DICT|INTERRES
    55   27   91 1    
    56   28   29 2    
    57   28   30 1    
    58   30   31 1    
    59   30   32 1    
    60   30   92 1    
    61   31   93 1    
    62   31   94 1    
    63   31   95 1    
    64   32   33 am   BACKBONE|DICT|INTERRES
    65   32   96 1    
    66   33   34 2    
    67   33   35 1    
    68   35   36 1    
    69   35   37 1    
    70   35   97 1    
    71   36   98 1    
    72   36   99 1    
    73   36  100 1    
    74   37   38 am   BACKBONE|DICT|INTERRES
    75   37  101 1    
    76   38   39 2    
    77   38   40 1    
    78   40   41 1    
    79   40   42 1    
    80   40  102 1    
    81   41  103 1    
    82   41  104 1    
    83   41  105 1    
    84   42   43 am   BACKBONE|DICT|INTERRES
    85   42  106 1    
    86   43   44 2    
    87   43   45 1    
    88   45   46 1    
    89   45   49 1    
    90   45  107 1    
    91   46   47 1    
    92   46  108 1    
    93   46  109 1    
    94   47   48 1    
    95   48  110 1    
    96   48  111 1    
    97   49   50 am   BACKBONE|DICT|INTERRES
    98   49  112 1    
    99   50   51 2    
   100   50   52 1    
   101   52   53 1    
   102   52   54 1    
   103   52  113 1    
   104   53  114 1    
   105   53  115 1    
   106   53  116 1    
   107   54   55 am   BACKBONE|DICT|INTERRES
   108   54  117 1    
   109   55   56 2    
   110   55   57 1    
   111   57   58 1    
   112   57   59 1    
   113   57  118 1    
   114   58  119 1    
   115   58  120 1    
   116   58  121 1    
   117   59   60 am   BACKBONE|DICT|INTERRES
   118   59  122 1    
   119   60   61 2    
   120   60   62 1    
   121   62   63 1    
   122   62   64 1    
   123   62  123 1    
   124   63  124 1    
   125   63  125 1    
   126   63  126 1    
   127   64   65 am   BACKBONE|DICT|INTERRES
   128   64  127 1    
   129   65   66 2    
@<TRIPOS>SUBSTRUCTURE
     1 UNK         1 GROUP             0       ****    0 ROOT    
