@<TRIPOS>MOLECULE
3R135
127   129    1
SMALL
USER_CHARGES


@<TRIPOS>ATOM
      1 CA        -84.5084   29.5180  -74.7803 C.3       0 UNK        -0.1998 
      2 C         -83.1649   29.0059  -74.2827 C.2       0 UNK         0.4909 
      3 O         -82.3574   28.5350  -75.0822 O.2       0 UNK        -0.5240 
      4 N         -82.9207   29.1027  -72.9705 N.am      1 UNK        -0.4739 
      5 CA        -81.7083   28.6325  -72.2948 C.3       1 UNK         0.0864 
      6 C6        -81.5968   29.2325  -70.8677 C.3       11 UNK        -0.0881 
      7 S7        -81.2081   31.0176  -70.9142 S.3       11 UNK        -0.2682 
      8 C8        -79.4992   31.0700  -70.2684 C.3       11 UNK         0.0289 
      9 C9        -78.5802   30.0849  -70.9785 C.ar      11 UNK        -0.0687 
     10 C10       -78.3124   30.2306  -72.3421 C.ar      11 UNK        -0.0823 
     11 C11       -77.5531   29.2725  -73.0162 C.ar      11 UNK        -0.0830 
     12 C12       -77.0465   28.1748  -72.3157 C.ar      11 UNK        -0.1021 
     13 C13       -77.2585   28.0444  -70.9383 C.ar      11 UNK        -0.0753 
     14 C14       -78.0332   29.0033  -70.2793 C.ar      11 UNK        -0.0933 
     15 C15       -76.7046   26.8568  -70.1523 C.3       11 UNK         0.0166 
     16 S16       -75.0704   26.2758  -70.7223 S.3       11 UNK        -0.2615 
     17 C17       -73.9286   27.5394  -70.0552 C.3       11 UNK        -0.0865 
     18 CA        -73.8710   28.8844  -70.8483 C.3       10 UNK         0.0862 
     19 C         -72.7794   29.8676  -70.3249 C.2       10 UNK         0.5551 
     20 N         -72.5545   29.9329  -69.0186 N.am      10 UNK        -0.7319 
     21 O         -72.1614   30.6136  -71.0828 O.2       10 UNK        -0.5018 
     22 N         -73.8469   28.7167  -72.3111 N.am      10 UNK        -0.4509 
     23 C         -72.9154   28.0856  -73.0354 C.2       10 UNK         0.4899 
     24 O         -71.9285   27.5256  -72.5525 O.2       10 UNK        -0.4839 
     25 CA        -73.1920   28.0483  -74.5533 C.3       9 UNK         0.0222 
     26 CB        -73.2415   29.4619  -75.1748 C.3       9 UNK        -0.1966 
     27 N         -72.2839   27.1678  -75.3022 N.am      9 UNK        -0.4218 
     28 C         -70.9665   27.3261  -75.5098 C.2       9 UNK         0.5020 
     29 O         -70.3249   28.3207  -75.1661 O.2       9 UNK        -0.5274 
     30 CA        -70.2086   26.1793  -76.2062 C.3       8 UNK         0.0270 
     31 CB        -69.3880   25.3835  -75.1765 C.3       8 UNK        -0.1976 
     32 N         -71.0529   25.2453  -76.9566 N.am      8 UNK        -0.4313 
     33 C         -71.6281   25.5034  -78.1382 C.2       8 UNK         0.5041 
     34 O         -71.5628   26.5977  -78.7011 O.2       8 UNK        -0.5577 
     35 CA        -72.3781   24.3498  -78.8273 C.3       7 UNK         0.0284 
     36 CB        -72.4009   23.0310  -78.0245 C.3       7 UNK        -0.1958 
     37 N         -73.7521   24.7700  -79.0758 N.am      7 UNK        -0.4454 
     38 C         -74.3439   24.8676  -80.2730 C.2       7 UNK         0.5089 
     39 O         -73.7843   24.5952  -81.3362 O.2       7 UNK        -0.5125 
     40 CA        -75.8187   25.3209  -80.3042 C.3       6 UNK         0.0408 
     41 CB        -76.7251   24.1696  -80.7703 C.3       6 UNK        -0.1791 
     42 N         -76.3015   25.8036  -79.0078 N.am      6 UNK        -0.4762 
     43 C         -76.0469   27.0200  -78.5011 C.2       6 UNK         0.5007 
     44 O         -75.4643   27.9077  -79.1237 O.2       6 UNK        -0.5032 
     45 CA        -76.4900   27.2853  -77.0459 C.3       5 UNK         0.0783 
     46 C46       -77.7732   28.1591  -77.0312 C.3       11 UNK        -0.0857 
     47 S47       -78.5339   28.3754  -75.3891 S.3       11 UNK        -0.2512 
     48 C48       -77.3166   29.3890  -74.5101 C.3       11 UNK         0.0225 
     49 N         -76.6137   26.0536  -76.2504 N.am      5 UNK        -0.4615 
     50 C         -75.5944   25.2320  -75.9539 C.2       4 UNK         0.5053 
     51 O         -74.4333   25.4460  -76.3017 O.2       4 UNK        -0.5105 
     52 CA        -75.8920   23.9468  -75.1639 C.3       4 UNK         0.0263 
     53 CB        -75.4665   24.1256  -73.6990 C.3       4 UNK        -0.1981 
     54 N         -77.2869   23.5042  -75.2019 N.am      4 UNK        -0.4224 
     55 C         -77.9940   23.1800  -76.2951 C.2       3 UNK         0.4895 
     56 O         -77.5396   23.2110  -77.4393 O.2       3 UNK        -0.5091 
     57 CA        -79.4692   22.7872  -76.0708 C.3       3 UNK         0.0250 
     58 CB        -79.6243   21.2581  -76.0807 C.3       3 UNK        -0.1996 
     59 N         -80.0357   23.3266  -74.8250 N.am      3 UNK        -0.4254 
     60 C         -80.2036   24.6348  -74.5841 C.2       2 UNK         0.5004 
     61 O         -79.9724   25.5060  -75.4229 O.2       2 UNK        -0.5226 
     62 CA        -80.6361   25.0289  -73.1649 C.3       2 UNK         0.0269 
     63 CB        -79.5604   24.6440  -72.1283 C.3       2 UNK        -0.1926 
     64 N         -80.8575   26.4726  -73.1025 N.am      2 UNK        -0.4687 
     65 C         -81.6837   27.0915  -72.2525 C.2       1 UNK         0.5165 
     66 O         -82.4080   26.4971  -71.4503 O.2       1 UNK        -0.5079 
     67 H67       -85.1198   29.9146  -73.9699 H         1 UNK         0.0900 
     68 H68       -85.0626   28.7117  -75.2601 H         1 UNK         0.0900 
     69 H69       -84.3594   30.3117  -75.5119 H         1 UNK         0.0900 
     70 H70       -83.6268   29.4951  -72.3645 H         1 UNK         0.2959 
     71 H71       -80.8426   28.9625  -72.8741 H         1 UNK         0.1079 
     72 H72       -82.5298   29.0948  -70.3181 H         1 UNK         0.0837 
     73 H73       -80.8381   28.7127  -70.2808 H         1 UNK         0.0837 
     74 H74       -79.1049   32.0802  -70.3863 H         1 UNK         0.0685 
     75 H75       -79.5239   30.8727  -69.1956 H         1 UNK         0.0685 
     76 H76       -78.7356   31.0650  -72.8849 H         1 UNK         0.1434 
     77 H77       -76.4860   27.4199  -72.8492 H         1 UNK         0.1329 
     78 H78       -78.2340   28.8927  -69.2224 H         1 UNK         0.1335 
     79 H79       -76.6412   27.0942  -69.0893 H         1 UNK         0.0680 
     80 H80       -77.4118   26.0317  -70.2416 H         1 UNK         0.0680 
     81 H81       -72.9354   27.0879  -70.0261 H         1 UNK         0.1032 
     82 H82       -74.2020   27.7208  -69.0151 H         1 UNK         0.1032 
     83 H83       -74.8083   29.4065  -70.6566 H         1 UNK         0.0461 
     84 H84       -71.8619   30.5812  -68.6773 H         1 UNK         0.3453 
     85 H85       -73.0642   29.3600  -68.3656 H         1 UNK         0.3453 
     86 H86       -74.6128   29.1610  -72.7927 H         1 UNK         0.2984 
     87 H87       -74.1808   27.6040  -74.6650 H         1 UNK         0.0554 
     88 H88       -73.4188   29.4156  -76.2495 H         1 UNK         0.0847 
     89 H89       -72.3125   30.0092  -75.0132 H         1 UNK         0.0847 
     90 H90       -74.0412   30.0637  -74.7434 H         1 UNK         0.0847 
     91 H91       -72.7197   26.3219  -75.6555 H         1 UNK         0.3141 
     92 H92       -69.5111   26.6390  -76.9099 H         1 UNK         0.0743 
     93 H93       -70.0290   24.8890  -74.4454 H         1 UNK         0.0784 
     94 H94       -68.7733   24.6226  -75.6579 H         1 UNK         0.0784 
     95 H95       -68.7132   26.0394  -74.6242 H         1 UNK         0.0784 
     96 H96       -71.1702   24.3234  -76.5614 H         1 UNK         0.3213 
     97 H97       -71.8580   24.1632  -79.7692 H         1 UNK         0.0855 
     98 H98       -72.8995   23.1441  -77.0607 H         1 UNK         0.0814 
     99 H99       -71.3929   22.6543  -77.8455 H         1 UNK         0.0814 
    100 H100      -72.9320   22.2537  -78.5743 H         1 UNK         0.0814 
    101 H101      -74.2592   25.0816  -78.2542 H         1 UNK         0.3105 
    102 H102      -75.8973   26.1303  -81.0330 H         1 UNK         0.0547 
    103 H103      -76.4314   23.8156  -81.7594 H         1 UNK         0.0837 
    104 H104      -76.6749   23.3171  -80.0916 H         1 UNK         0.0837 
    105 H105      -77.7664   24.4846  -80.8368 H         1 UNK         0.0837 
    106 H106      -76.7811   25.1256  -78.4258 H         1 UNK         0.3020 
    107 H107      -75.6814   27.8669  -76.6012 H         1 UNK         0.1245 
    108 H108      -77.5680   29.1464  -77.4499 H         1 UNK         0.0781 
    109 H109      -78.5389   27.7136  -77.6698 H         1 UNK         0.0781 
    110 H110      -77.3913   30.4256  -74.8423 H         1 UNK         0.0836 
    111 H111      -76.3067   29.0559  -74.7428 H         1 UNK         0.0836 
    112 H112      -77.5457   25.8268  -75.9275 H         1 UNK         0.3022 
    113 H113      -75.2853   23.1539  -75.6059 H         1 UNK         0.0747 
    114 H114      -75.5452   23.1913  -73.1431 H         1 UNK         0.0793 
    115 H115      -74.4291   24.4566  -73.6253 H         1 UNK         0.0793 
    116 H116      -76.0812   24.8704  -73.1927 H         1 UNK         0.0793 
    117 H117      -77.7566   23.4397  -74.3117 H         1 UNK         0.3047 
    118 H118      -80.0426   23.1958  -76.9059 H         1 UNK         0.0822 
    119 H119      -80.6717   20.9644  -76.0078 H         1 UNK         0.0807 
    120 H120      -79.0846   20.7905  -75.2561 H         1 UNK         0.0807 
    121 H121      -79.2351   20.8330  -77.0072 H         1 UNK         0.0807 
    122 H122      -80.2572   22.6589  -74.0996 H         1 UNK         0.2946 
    123 H123      -81.5696   24.5060  -72.9442 H         1 UNK         0.1144 
    124 H124      -79.8608   24.9309  -71.1203 H         1 UNK         0.0793 
    125 H125      -78.6083   25.1327  -72.3403 H         1 UNK         0.0793 
    126 H126      -79.3834   23.5683  -72.1108 H         1 UNK         0.0793 
    127 H127      -80.3763   27.0035  -73.8214 H         1 UNK         0.2896 
@<TRIPOS>BOND
     1    1    2 1    
     2    1   67 1    
     3    1   68 1    
     4    1   69 1    
     5    2    3 2    
     6    2    4 am   BACKBONE|DICT|INTERRES
     7    4    5 1    
     8    4   70 1    
     9    5    6 1    
    10    5   65 1    
    11    5   71 1    
    12    6    7 1    
    13    6   72 1    
    14    6   73 1    
    15    7    8 1    
    16    8    9 1    
    17    8   74 1    
    18    8   75 1    
    19    9   10 ar   
    20    9   14 ar   
    21   10   11 ar   
    22   10   76 1    
    23   11   12 ar   
    24   11   48 1    
    25   12   13 ar   
    26   12   77 1    
    27   13   14 ar   
    28   13   15 1    
    29   14   78 1    
    30   15   16 1    
    31   15   79 1    
    32   15   80 1    
    33   16   17 1    
    34   17   18 1    
    35   17   81 1    
    36   17   82 1    
    37   18   19 1    
    38   18   22 1    
    39   18   83 1    
    40   19   20 am   BACKBONE|DICT|INTERRES
    41   19   21 2    
    42   20   84 1    
    43   20   85 1    
    44   22   23 am   BACKBONE|DICT|INTERRES
    45   22   86 1    
    46   23   24 2    
    47   23   25 1    
    48   25   26 1    
    49   25   27 1    
    50   25   87 1    
    51   26   88 1    
    52   26   89 1    
    53   26   90 1    
    54   27   28 am   BACKBONE|DICT|INTERRES
    55   27   91 1    
    56   28   29 2    
    57   28   30 1    
    58   30   31 1    
    59   30   32 1    
    60   30   92 1    
    61   31   93 1    
    62   31   94 1    
    63   31   95 1    
    64   32   33 am   BACKBONE|DICT|INTERRES
    65   32   96 1    
    66   33   34 2    
    67   33   35 1    
    68   35   36 1    
    69   35   37 1    
    70   35   97 1    
    71   36   98 1    
    72   36   99 1    
    73   36  100 1    
    74   37   38 am   BACKBONE|DICT|INTERRES
    75   37  101 1    
    76   38   39 2    
    77   38   40 1    
    78   40   41 1    
    79   40   42 1    
    80   40  102 1    
    81   41  103 1    
    82   41  104 1    
    83   41  105 1    
    84   42   43 am   BACKBONE|DICT|INTERRES
    85   42  106 1    
    86   43   44 2    
    87   43   45 1    
    88   45   46 1    
    89   45   49 1    
    90   45  107 1    
    91   46   47 1    
    92   46  108 1    
    93   46  109 1    
    94   47   48 1    
    95   48  110 1    
    96   48  111 1    
    97   49   50 am   BACKBONE|DICT|INTERRES
    98   49  112 1    
    99   50   51 2    
   100   50   52 1    
   101   52   53 1    
   102   52   54 1    
   103   52  113 1    
   104   53  114 1    
   105   53  115 1    
   106   53  116 1    
   107   54   55 am   BACKBONE|DICT|INTERRES
   108   54  117 1    
   109   55   56 2    
   110   55   57 1    
   111   57   58 1    
   112   57   59 1    
   113   57  118 1    
   114   58  119 1    
   115   58  120 1    
   116   58  121 1    
   117   59   60 am   BACKBONE|DICT|INTERRES
   118   59  122 1    
   119   60   61 2    
   120   60   62 1    
   121   62   63 1    
   122   62   64 1    
   123   62  123 1    
   124   63  124 1    
   125   63  125 1    
   126   63  126 1    
   127   64   65 am   BACKBONE|DICT|INTERRES
   128   64  127 1    
   129   65   66 2    
@<TRIPOS>SUBSTRUCTURE
     1 UNK         1 GROUP             0       ****    0 ROOT    
