@<TRIPOS>MOLECULE
3R135
127   129    1
SMALL
USER_CHARGES


@<TRIPOS>ATOM
      1 CA        -84.5610   25.1218  -74.4290 C.3       0 UNK        -0.1998 
      2 C         -83.5251   26.2353  -74.3935 C.2       0 UNK         0.4909 
      3 O         -83.1117   26.7238  -75.4460 O.2       0 UNK        -0.5240 
      4 N         -83.1043   26.6445  -73.1893 N.am      1 UNK        -0.4739 
      5 CA        -82.0780   27.6663  -72.9588 C.3       1 UNK         0.0864 
      6 C6        -81.9759   28.0260  -71.4551 C.3       11 UNK        -0.0881 
      7 S7        -81.2825   29.6896  -71.1766 S.3       11 UNK        -0.2682 
      8 C8        -79.8178   29.3314  -70.1534 C.3       11 UNK         0.0289 
      9 C9        -78.6092   28.9392  -70.9914 C.ar      11 UNK        -0.0687 
     10 C10       -78.1707   27.6105  -71.0407 C.ar      11 UNK        -0.0823 
     11 C11       -77.0389   27.2635  -71.7875 C.ar      11 UNK        -0.0830 
     12 C12       -76.3476   28.2594  -72.4813 C.ar      11 UNK        -0.1021 
     13 C13       -76.7777   29.5882  -72.4456 C.ar      11 UNK        -0.0753 
     14 C14       -77.9080   29.9227  -71.6964 C.ar      11 UNK        -0.0933 
     15 C15       -76.0225   30.6534  -73.2238 C.3       11 UNK         0.0166 
     16 S16       -74.5580   31.2267  -72.3068 S.3       11 UNK        -0.2615 
     17 C17       -73.7511   32.2871  -73.5585 C.3       11 UNK        -0.0865 
     18 CA        -73.0003   31.4717  -74.6500 C.3       10 UNK         0.0862 
     19 C         -72.4494   32.3452  -75.8177 C.2       10 UNK         0.5551 
     20 N         -71.4173   31.9069  -76.5290 N.am      10 UNK        -0.7319 
     21 O         -72.9805   33.4146  -76.1073 O.2       10 UNK        -0.5018 
     22 N         -72.0455   30.5025  -74.0898 N.am      10 UNK        -0.4509 
     23 C         -70.8631   30.7635  -73.5163 C.2       10 UNK         0.4899 
     24 O         -70.4149   31.8991  -73.3550 O.2       10 UNK        -0.4839 
     25 CA        -70.0246   29.5590  -73.0382 C.3       9 UNK         0.0222 
     26 CB        -70.0092   29.4952  -71.5019 C.3       9 UNK        -0.1966 
     27 N         -70.4802   28.2664  -73.5617 N.am      9 UNK        -0.4218 
     28 C         -70.4058   27.8694  -74.8400 C.2       9 UNK         0.5020 
     29 O         -69.8660   28.5267  -75.7317 O.2       9 UNK        -0.5274 
     30 CA        -71.0903   26.5345  -75.1991 C.3       8 UNK         0.0270 
     31 CB        -71.2893   25.5850  -73.9952 C.3       8 UNK        -0.1976 
     32 N         -72.3676   26.7502  -75.8892 N.am      8 UNK        -0.4313 
     33 C         -73.4118   27.4739  -75.4643 C.2       8 UNK         0.5041 
     34 O         -73.4281   28.0704  -74.3896 O.2       8 UNK        -0.5577 
     35 CA        -74.6480   27.5684  -76.3761 C.3       7 UNK         0.0284 
     36 CB        -74.4250   28.5811  -77.5156 C.3       7 UNK        -0.1958 
     37 N         -75.1373   26.2821  -76.8864 N.am      7 UNK        -0.4454 
     38 C         -74.5294   25.4047  -77.6964 C.2       7 UNK         0.5089 
     39 O         -73.4136   25.5773  -78.1925 O.2       7 UNK        -0.5125 
     40 CA        -75.3054   24.1028  -77.9615 C.3       6 UNK         0.0408 
     41 CB        -74.4820   23.0502  -78.7332 C.3       6 UNK        -0.1791 
     42 N         -75.8644   23.5332  -76.7298 N.am      6 UNK        -0.4762 
     43 C         -75.2015   23.0927  -75.6455 C.2       6 UNK         0.5007 
     44 O         -73.9747   23.1003  -75.5385 O.2       6 UNK        -0.5032 
     45 CA        -76.0533   22.5222  -74.4865 C.3       5 UNK         0.0783 
     46 C46       -76.0407   23.4354  -73.2321 C.3       11 UNK        -0.0857 
     47 S47       -76.8378   25.0592  -73.4612 S.3       11 UNK        -0.2512 
     48 C48       -76.5410   25.8239  -71.8357 C.3       11 UNK         0.0225 
     49 N         -77.4129   22.1690  -74.9194 N.am      5 UNK        -0.4615 
     50 C         -77.7128   21.0865  -75.6510 C.2       4 UNK         0.5053 
     51 O         -76.8974   20.2022  -75.9131 O.2       4 UNK        -0.5105 
     52 CA        -79.1313   20.9814  -76.2417 C.3       4 UNK         0.0263 
     53 CB        -80.1221   20.3693  -75.2310 C.3       4 UNK        -0.1981 
     54 N         -79.6309   22.2356  -76.8305 N.am      4 UNK        -0.4224 
     55 C         -79.9963   23.3593  -76.1993 C.2       3 UNK         0.4895 
     56 O         -80.0059   23.4808  -74.9736 O.2       3 UNK        -0.5091 
     57 CA        -80.4152   24.5381  -77.0967 C.3       3 UNK         0.0250 
     58 CB        -81.8829   24.3945  -77.5285 C.3       3 UNK        -0.1996 
     59 N         -80.2301   25.8213  -76.4136 N.am      3 UNK        -0.4254 
     60 C         -79.0303   26.3590  -76.1445 C.2       2 UNK         0.5004 
     61 O         -77.9725   25.8977  -76.5792 O.2       2 UNK        -0.5226 
     62 CA        -78.9780   27.6212  -75.2594 C.3       2 UNK         0.0269 
     63 CB        -78.5594   28.8494  -76.0845 C.3       2 UNK        -0.1926 
     64 N         -80.2251   27.9246  -74.5506 N.am      2 UNK        -0.4687 
     65 C         -80.7247   27.2046  -73.5359 C.2       1 UNK         0.5165 
     66 O         -80.1925   26.1958  -73.0734 O.2       1 UNK        -0.5079 
     67 H67       -85.3667   25.3791  -75.1160 H         1 UNK         0.0900 
     68 H68       -84.9996   24.9446  -73.4472 H         1 UNK         0.0900 
     69 H69       -84.1043   24.1934  -74.7699 H         1 UNK         0.0900 
     70 H70       -83.4571   26.1843  -72.3624 H         1 UNK         0.2959 
     71 H71       -82.4043   28.5571  -73.5008 H         1 UNK         0.1079 
     72 H72       -81.4147   27.2713  -70.9003 H         1 UNK         0.0837 
     73 H73       -82.9714   28.0353  -71.0083 H         1 UNK         0.0837 
     74 H74       -79.5722   30.2256  -69.5785 H         1 UNK         0.0685 
     75 H75       -80.0542   28.5603  -69.4186 H         1 UNK         0.0685 
     76 H76       -78.7124   26.8455  -70.5017 H         1 UNK         0.1434 
     77 H77       -75.4717   27.9950  -73.0531 H         1 UNK         0.1329 
     78 H78       -78.2437   30.9501  -71.6587 H         1 UNK         0.1335 
     79 H79       -75.7211   30.2395  -74.1865 H         1 UNK         0.0680 
     80 H80       -76.6712   31.5034  -73.4408 H         1 UNK         0.0680 
     81 H81       -73.0564   32.9560  -73.0479 H         1 UNK         0.1032 
     82 H82       -74.5123   32.9282  -74.0069 H         1 UNK         0.1032 
     83 H83       -73.7483   30.8526  -75.1419 H         1 UNK         0.0461 
     84 H84       -71.0667   32.4661  -77.2904 H         1 UNK         0.3453 
     85 H85       -70.9771   31.0285  -76.2997 H         1 UNK         0.3453 
     86 H86       -72.3599   29.5348  -74.1381 H         1 UNK         0.2984 
     87 H87       -69.0015   29.7186  -73.3845 H         1 UNK         0.0554 
     88 H88       -69.3646   28.6931  -71.1420 H         1 UNK         0.0847 
     89 H89       -71.0088   29.3340  -71.0956 H         1 UNK         0.0847 
     90 H90       -69.6321   30.4260  -71.0757 H         1 UNK         0.0847 
     91 H91       -70.9933   27.6767  -72.9221 H         1 UNK         0.3141 
     92 H92       -70.4326   26.0327  -75.9103 H         1 UNK         0.0743 
     93 H93       -72.0080   25.9714  -73.2716 H         1 UNK         0.0784 
     94 H94       -71.6582   24.6140  -74.3275 H         1 UNK         0.0784 
     95 H95       -70.3488   25.4071  -73.4720 H         1 UNK         0.0784 
     96 H96       -72.4712   26.3043  -76.7996 H         1 UNK         0.3213 
     97 H97       -75.4558   27.9528  -75.7514 H         1 UNK         0.0855 
     98 H98       -74.1448   29.5581  -77.1218 H         1 UNK         0.0814 
     99 H99       -75.3316   28.7182  -78.1049 H         1 UNK         0.0814 
    100 H100      -73.6301   28.2677  -78.1928 H         1 UNK         0.0814 
    101 H101      -76.0728   26.0270  -76.5727 H         1 UNK         0.3105 
    102 H102      -76.1573   24.3772  -78.5854 H         1 UNK         0.0547 
    103 H103      -74.1675   23.4370  -79.7032 H         1 UNK         0.0837 
    104 H104      -73.5800   22.7628  -78.1922 H         1 UNK         0.0837 
    105 H105      -75.0645   22.1478  -78.9177 H         1 UNK         0.0837 
    106 H106      -76.8731   23.5402  -76.6717 H         1 UNK         0.3020 
    107 H107      -75.5562   21.5938  -74.1950 H         1 UNK         0.1245 
    108 H108      -75.0139   23.5982  -72.8988 H         1 UNK         0.0781 
    109 H109      -76.5425   22.9257  -72.4082 H         1 UNK         0.0781 
    110 H110      -75.4720   25.8066  -71.6179 H         1 UNK         0.0836 
    111 H111      -77.0257   25.2231  -71.0647 H         1 UNK         0.0836 
    112 H112      -78.1500   22.8414  -74.7236 H         1 UNK         0.3022 
    113 H113      -79.0625   20.2842  -77.0786 H         1 UNK         0.0747 
    114 H114      -81.1163   20.2627  -75.6647 H         1 UNK         0.0793 
    115 H115      -79.7943   19.3755  -74.9233 H         1 UNK         0.0793 
    116 H116      -80.2130   20.9700  -74.3258 H         1 UNK         0.0793 
    117 H117      -79.6550   22.2417  -77.8415 H         1 UNK         0.3047 
    118 H118      -79.7876   24.5380  -77.9907 H         1 UNK         0.0822 
    119 H119      -82.2076   25.2452  -78.1281 H         1 UNK         0.0807 
    120 H120      -82.5487   24.3173  -76.6694 H         1 UNK         0.0807 
    121 H121      -82.0290   23.4979  -78.1320 H         1 UNK         0.0807 
    122 H122      -81.0549   26.2401  -75.9996 H         1 UNK         0.2946 
    123 H123      -78.2080   27.4404  -74.5078 H         1 UNK         0.1144 
    124 H124      -77.6328   28.6619  -76.6280 H         1 UNK         0.0793 
    125 H125      -78.3870   29.7148  -75.4442 H         1 UNK         0.0793 
    126 H126      -79.3178   29.1176  -76.8208 H         1 UNK         0.0793 
    127 H127      -80.7477   28.7216  -74.8845 H         1 UNK         0.2896 
@<TRIPOS>BOND
     1    1    2 1    
     2    1   67 1    
     3    1   68 1    
     4    1   69 1    
     5    2    3 2    
     6    2    4 am   BACKBONE|DICT|INTERRES
     7    4    5 1    
     8    4   70 1    
     9    5    6 1    
    10    5   65 1    
    11    5   71 1    
    12    6    7 1    
    13    6   72 1    
    14    6   73 1    
    15    7    8 1    
    16    8    9 1    
    17    8   74 1    
    18    8   75 1    
    19    9   10 ar   
    20    9   14 ar   
    21   10   11 ar   
    22   10   76 1    
    23   11   12 ar   
    24   11   48 1    
    25   12   13 ar   
    26   12   77 1    
    27   13   14 ar   
    28   13   15 1    
    29   14   78 1    
    30   15   16 1    
    31   15   79 1    
    32   15   80 1    
    33   16   17 1    
    34   17   18 1    
    35   17   81 1    
    36   17   82 1    
    37   18   19 1    
    38   18   22 1    
    39   18   83 1    
    40   19   20 am   BACKBONE|DICT|INTERRES
    41   19   21 2    
    42   20   84 1    
    43   20   85 1    
    44   22   23 am   BACKBONE|DICT|INTERRES
    45   22   86 1    
    46   23   24 2    
    47   23   25 1    
    48   25   26 1    
    49   25   27 1    
    50   25   87 1    
    51   26   88 1    
    52   26   89 1    
    53   26   90 1    
    54   27   28 am   BACKBONE|DICT|INTERRES
    55   27   91 1    
    56   28   29 2    
    57   28   30 1    
    58   30   31 1    
    59   30   32 1    
    60   30   92 1    
    61   31   93 1    
    62   31   94 1    
    63   31   95 1    
    64   32   33 am   BACKBONE|DICT|INTERRES
    65   32   96 1    
    66   33   34 2    
    67   33   35 1    
    68   35   36 1    
    69   35   37 1    
    70   35   97 1    
    71   36   98 1    
    72   36   99 1    
    73   36  100 1    
    74   37   38 am   BACKBONE|DICT|INTERRES
    75   37  101 1    
    76   38   39 2    
    77   38   40 1    
    78   40   41 1    
    79   40   42 1    
    80   40  102 1    
    81   41  103 1    
    82   41  104 1    
    83   41  105 1    
    84   42   43 am   BACKBONE|DICT|INTERRES
    85   42  106 1    
    86   43   44 2    
    87   43   45 1    
    88   45   46 1    
    89   45   49 1    
    90   45  107 1    
    91   46   47 1    
    92   46  108 1    
    93   46  109 1    
    94   47   48 1    
    95   48  110 1    
    96   48  111 1    
    97   49   50 am   BACKBONE|DICT|INTERRES
    98   49  112 1    
    99   50   51 2    
   100   50   52 1    
   101   52   53 1    
   102   52   54 1    
   103   52  113 1    
   104   53  114 1    
   105   53  115 1    
   106   53  116 1    
   107   54   55 am   BACKBONE|DICT|INTERRES
   108   54  117 1    
   109   55   56 2    
   110   55   57 1    
   111   57   58 1    
   112   57   59 1    
   113   57  118 1    
   114   58  119 1    
   115   58  120 1    
   116   58  121 1    
   117   59   60 am   BACKBONE|DICT|INTERRES
   118   59  122 1    
   119   60   61 2    
   120   60   62 1    
   121   62   63 1    
   122   62   64 1    
   123   62  123 1    
   124   63  124 1    
   125   63  125 1    
   126   63  126 1    
   127   64   65 am   BACKBONE|DICT|INTERRES
   128   64  127 1    
   129   65   66 2    
@<TRIPOS>SUBSTRUCTURE
     1 UNK         1 GROUP             0       ****    0 ROOT    
