@<TRIPOS>MOLECULE
3R135
127   129    1
SMALL
USER_CHARGES


@<TRIPOS>ATOM
      1 CA        -74.3398   26.0631  -69.5484 C.3       0 UNK        -0.1998 
      2 C         -75.5869   25.1985  -69.4398 C.2       0 UNK         0.4909 
      3 O         -75.4935   24.0361  -69.0452 O.2       0 UNK        -0.5240 
      4 N         -76.7546   25.7597  -69.7806 N.am      1 UNK        -0.4739 
      5 CA        -78.0645   25.0921  -69.7574 C.3       1 UNK         0.0864 
      6 C6        -79.2634   26.0838  -69.8684 C.3       11 UNK        -0.0881 
      7 S7        -78.9306   27.6623  -70.7309 S.3       11 UNK        -0.2682 
      8 C8        -79.2918   27.2695  -72.4753 C.3       11 UNK         0.0289 
      9 C9        -79.1212   28.4877  -73.3811 C.ar      11 UNK        -0.0687 
     10 C10       -80.1075   28.8179  -74.3181 C.ar      11 UNK        -0.0823 
     11 C11       -79.9528   29.9313  -75.1533 C.ar      11 UNK        -0.0830 
     12 C12       -78.8068   30.7234  -75.0407 C.ar      11 UNK        -0.1021 
     13 C13       -77.8191   30.4096  -74.1055 C.ar      11 UNK        -0.0753 
     14 C14       -77.9753   29.2867  -73.2906 C.ar      11 UNK        -0.0933 
     15 C15       -76.5958   31.2967  -73.9556 C.3       11 UNK         0.0166 
     16 S16       -75.2458   30.7299  -75.0266 S.3       11 UNK        -0.2615 
     17 C17       -73.9415   31.9402  -74.6012 C.3       11 UNK        -0.0865 
     18 CA        -72.8350   31.3671  -73.6753 C.3       10 UNK         0.0862 
     19 C         -73.3072   31.2403  -72.1946 C.2       10 UNK         0.5551 
     20 N         -73.2728   30.0692  -71.5681 N.am      10 UNK        -0.7319 
     21 O         -73.7059   32.2368  -71.5970 O.2       10 UNK        -0.5018 
     22 N         -72.2573   30.1483  -74.2520 N.am      10 UNK        -0.4509 
     23 C         -71.0677   29.6176  -73.9510 C.2       10 UNK         0.4899 
     24 O         -70.2296   30.1650  -73.2330 O.2       10 UNK        -0.4839 
     25 CA        -70.7989   28.2232  -74.5494 C.3       9 UNK         0.0222 
     26 CB        -69.6428   27.4768  -73.8504 C.3       9 UNK        -0.1966 
     27 N         -72.0146   27.3965  -74.5970 N.am      9 UNK        -0.4218 
     28 C         -72.7608   26.9902  -73.5546 C.2       9 UNK         0.5020 
     29 O         -72.4855   27.2536  -72.3835 O.2       9 UNK        -0.5274 
     30 CA        -74.0668   26.2183  -73.8413 C.3       8 UNK         0.0270 
     31 CB        -75.2712   26.9903  -73.2745 C.3       8 UNK        -0.1976 
     32 N         -74.3180   25.9672  -75.2613 N.am      8 UNK        -0.4313 
     33 C         -73.6531   25.1104  -76.0474 C.2       8 UNK         0.5041 
     34 O         -72.8029   24.3217  -75.6353 O.2       8 UNK        -0.5577 
     35 CA        -73.9518   25.1854  -77.5583 C.3       7 UNK         0.0284 
     36 CB        -74.8764   24.0320  -77.9798 C.3       7 UNK        -0.1958 
     37 N         -74.5433   26.4616  -77.9859 N.am      7 UNK        -0.4454 
     38 C         -73.9795   27.6734  -77.8743 C.2       7 UNK         0.5089 
     39 O         -72.8508   27.8522  -77.4160 O.2       7 UNK        -0.5125 
     40 CA        -74.8341   28.8989  -78.2549 C.3       6 UNK         0.0408 
     41 CB        -74.6423   29.2793  -79.7358 C.3       6 UNK        -0.1791 
     42 N         -76.2570   28.7810  -77.8833 N.am      6 UNK        -0.4762 
     43 C         -77.1855   27.9775  -78.4227 C.2       6 UNK         0.5007 
     44 O         -76.9636   27.2419  -79.3883 O.2       6 UNK        -0.5032 
     45 CA        -78.5758   27.9592  -77.7537 C.3       5 UNK         0.0783 
     46 C46       -79.4552   29.1363  -78.2466 C.3       11 UNK        -0.0857 
     47 S47       -81.1369   29.0903  -77.5302 S.3       11 UNK        -0.2512 
     48 C48       -81.0274   30.2948  -76.1690 C.3       11 UNK         0.0225 
     49 N         -79.2248   26.6646  -77.9804 N.am      5 UNK        -0.4615 
     50 C         -78.8517   25.5156  -77.4112 C.2       4 UNK         0.5053 
     51 O         -77.9456   25.4172  -76.5795 O.2       4 UNK        -0.5105 
     52 CA        -79.5990   24.2646  -77.8815 C.3       4 UNK         0.0263 
     53 CB        -78.9303   23.6675  -79.1314 C.3       4 UNK        -0.1981 
     54 N         -79.5773   23.2822  -76.8059 N.am      4 UNK        -0.4224 
     55 C         -80.6193   22.5533  -76.3915 C.2       3 UNK         0.4895 
     56 O         -81.7202   22.5604  -76.9446 O.2       3 UNK        -0.5091 
     57 CA        -80.4131   21.6526  -75.1565 C.3       3 UNK         0.0250 
     58 CB        -80.4488   20.1688  -75.5612 C.3       3 UNK        -0.1996 
     59 N         -79.1746   21.9092  -74.4113 N.am      3 UNK        -0.4254 
     60 C         -78.9220   23.0100  -73.6907 C.2       2 UNK         0.5004 
     61 O         -79.7023   23.9602  -73.5937 O.2       2 UNK        -0.5226 
     62 CA        -77.5443   23.0566  -73.0033 C.3       2 UNK         0.0269 
     63 CB        -76.4433   23.3811  -74.0263 C.3       2 UNK        -0.1926 
     64 N         -77.4879   24.0318  -71.9104 N.am      2 UNK        -0.4687 
     65 C         -78.1885   23.9351  -70.7713 C.2       1 UNK         0.5165 
     66 O         -78.9046   22.9712  -70.4926 O.2       1 UNK        -0.5079 
     67 H67       -73.6847   25.6813  -70.3311 H         1 UNK         0.0900 
     68 H68       -73.7898   26.0498  -68.6079 H         1 UNK         0.0900 
     69 H69       -74.5794   27.1001  -69.7825 H         1 UNK         0.0900 
     70 H70       -76.7832   26.7257  -70.0775 H         1 UNK         0.2959 
     71 H71       -78.1417   24.6117  -68.7789 H         1 UNK         0.1079 
     72 H72       -80.1493   25.6154  -70.3035 H         1 UNK         0.0837 
     73 H73       -79.5695   26.3589  -68.8579 H         1 UNK         0.0837 
     74 H74       -78.6243   26.4799  -72.8194 H         1 UNK         0.0685 
     75 H75       -80.3065   26.8746  -72.5466 H         1 UNK         0.0685 
     76 H76       -80.9957   28.2068  -74.4049 H         1 UNK         0.1434 
     77 H77       -78.6845   31.5916  -75.6743 H         1 UNK         0.1329 
     78 H78       -77.2087   29.0468  -72.5673 H         1 UNK         0.1335 
     79 H79       -76.2624   31.2989  -72.9167 H         1 UNK         0.0680 
     80 H80       -76.8477   32.3292  -74.2027 H         1 UNK         0.0680 
     81 H81       -74.3847   32.8411  -74.1723 H         1 UNK         0.1032 
     82 H82       -73.4862   32.2676  -75.5371 H         1 UNK         0.1032 
     83 H83       -72.0348   32.1093  -73.6503 H         1 UNK         0.0461 
     84 H84       -73.5754   30.0235  -70.6090 H         1 UNK         0.3453 
     85 H85       -72.9231   29.2342  -72.0225 H         1 UNK         0.3453 
     86 H86       -72.8801   29.6208  -74.8459 H         1 UNK         0.2984 
     87 H87       -70.5052   28.3890  -75.5869 H         1 UNK         0.0554 
     88 H88       -69.4769   26.4962  -74.2963 H         1 UNK         0.0847 
     89 H89       -69.8354   27.3336  -72.7867 H         1 UNK         0.0847 
     90 H90       -68.7093   28.0339  -73.9378 H         1 UNK         0.0847 
     91 H91       -72.3502   27.1912  -75.5326 H         1 UNK         0.3141 
     92 H92       -73.9908   25.2583  -73.3281 H         1 UNK         0.0743 
     93 H93       -75.1782   27.1382  -72.1990 H         1 UNK         0.0784 
     94 H94       -75.3544   27.9779  -73.7283 H         1 UNK         0.0784 
     95 H95       -76.2090   26.4653  -73.4499 H         1 UNK         0.0784 
     96 H96       -75.0159   26.5479  -75.7031 H         1 UNK         0.3213 
     97 H97       -73.0002   25.0743  -78.0823 H         1 UNK         0.0855 
     98 H98       -75.8394   24.0815  -77.4718 H         1 UNK         0.0814 
     99 H99       -74.4309   23.0667  -77.7352 H         1 UNK         0.0814 
    100 H100      -75.0614   24.0401  -79.0540 H         1 UNK         0.0814 
    101 H101      -75.4661   26.4248  -78.4092 H         1 UNK         0.3105 
    102 H102      -74.4493   29.7329  -77.6673 H         1 UNK         0.0547 
    103 H103      -73.5957   29.5073  -79.9416 H         1 UNK         0.0837 
    104 H104      -74.9315   28.4746  -80.4118 H         1 UNK         0.0837 
    105 H105      -75.2231   30.1637  -79.9969 H         1 UNK         0.0837 
    106 H106      -76.5219   29.3393  -77.0815 H         1 UNK         0.3020 
    107 H107      -78.4249   28.0636  -76.6767 H         1 UNK         0.1245 
    108 H108      -78.9887   30.0949  -78.0121 H         1 UNK         0.0781 
    109 H109      -79.5563   29.1080  -79.3334 H         1 UNK         0.0781 
    110 H110      -80.8512   31.2875  -76.5865 H         1 UNK         0.0836 
    111 H111      -81.9934   30.3456  -75.6649 H         1 UNK         0.0836 
    112 H112      -79.9611   26.6578  -78.6703 H         1 UNK         0.3022 
    113 H113      -80.6278   24.5459  -78.1177 H         1 UNK         0.0747 
    114 H114      -79.4651   22.7845  -79.4817 H         1 UNK         0.0793 
    115 H115      -78.9177   24.3869  -79.9514 H         1 UNK         0.0793 
    116 H116      -77.8971   23.3777  -78.9363 H         1 UNK         0.0793 
    117 H117      -78.7353   23.2915  -76.2463 H         1 UNK         0.3047 
    118 H118      -81.2519   21.8425  -74.4832 H         1 UNK         0.0822 
    119 H119      -80.3911   19.5167  -74.6894 H         1 UNK         0.0807 
    120 H120      -79.6255   19.9129  -76.2295 H         1 UNK         0.0807 
    121 H121      -81.3768   19.9265  -76.0813 H         1 UNK         0.0807 
    122 H122      -78.4735   21.1828  -74.4511 H         1 UNK         0.2946 
    123 H123      -77.3468   22.0704  -72.5764 H         1 UNK         0.1144 
    124 H124      -76.4149   22.6434  -74.8290 H         1 UNK         0.0793 
    125 H125      -75.4575   23.3811  -73.5621 H         1 UNK         0.0793 
    126 H126      -76.6014   24.3543  -74.4907 H         1 UNK         0.0793 
    127 H127      -76.9279   24.8571  -72.0560 H         1 UNK         0.2896 
@<TRIPOS>BOND
     1    1    2 1    
     2    1   67 1    
     3    1   68 1    
     4    1   69 1    
     5    2    3 2    
     6    2    4 am   BACKBONE|DICT|INTERRES
     7    4    5 1    
     8    4   70 1    
     9    5    6 1    
    10    5   65 1    
    11    5   71 1    
    12    6    7 1    
    13    6   72 1    
    14    6   73 1    
    15    7    8 1    
    16    8    9 1    
    17    8   74 1    
    18    8   75 1    
    19    9   10 ar   
    20    9   14 ar   
    21   10   11 ar   
    22   10   76 1    
    23   11   12 ar   
    24   11   48 1    
    25   12   13 ar   
    26   12   77 1    
    27   13   14 ar   
    28   13   15 1    
    29   14   78 1    
    30   15   16 1    
    31   15   79 1    
    32   15   80 1    
    33   16   17 1    
    34   17   18 1    
    35   17   81 1    
    36   17   82 1    
    37   18   19 1    
    38   18   22 1    
    39   18   83 1    
    40   19   20 am   BACKBONE|DICT|INTERRES
    41   19   21 2    
    42   20   84 1    
    43   20   85 1    
    44   22   23 am   BACKBONE|DICT|INTERRES
    45   22   86 1    
    46   23   24 2    
    47   23   25 1    
    48   25   26 1    
    49   25   27 1    
    50   25   87 1    
    51   26   88 1    
    52   26   89 1    
    53   26   90 1    
    54   27   28 am   BACKBONE|DICT|INTERRES
    55   27   91 1    
    56   28   29 2    
    57   28   30 1    
    58   30   31 1    
    59   30   32 1    
    60   30   92 1    
    61   31   93 1    
    62   31   94 1    
    63   31   95 1    
    64   32   33 am   BACKBONE|DICT|INTERRES
    65   32   96 1    
    66   33   34 2    
    67   33   35 1    
    68   35   36 1    
    69   35   37 1    
    70   35   97 1    
    71   36   98 1    
    72   36   99 1    
    73   36  100 1    
    74   37   38 am   BACKBONE|DICT|INTERRES
    75   37  101 1    
    76   38   39 2    
    77   38   40 1    
    78   40   41 1    
    79   40   42 1    
    80   40  102 1    
    81   41  103 1    
    82   41  104 1    
    83   41  105 1    
    84   42   43 am   BACKBONE|DICT|INTERRES
    85   42  106 1    
    86   43   44 2    
    87   43   45 1    
    88   45   46 1    
    89   45   49 1    
    90   45  107 1    
    91   46   47 1    
    92   46  108 1    
    93   46  109 1    
    94   47   48 1    
    95   48  110 1    
    96   48  111 1    
    97   49   50 am   BACKBONE|DICT|INTERRES
    98   49  112 1    
    99   50   51 2    
   100   50   52 1    
   101   52   53 1    
   102   52   54 1    
   103   52  113 1    
   104   53  114 1    
   105   53  115 1    
   106   53  116 1    
   107   54   55 am   BACKBONE|DICT|INTERRES
   108   54  117 1    
   109   55   56 2    
   110   55   57 1    
   111   57   58 1    
   112   57   59 1    
   113   57  118 1    
   114   58  119 1    
   115   58  120 1    
   116   58  121 1    
   117   59   60 am   BACKBONE|DICT|INTERRES
   118   59  122 1    
   119   60   61 2    
   120   60   62 1    
   121   62   63 1    
   122   62   64 1    
   123   62  123 1    
   124   63  124 1    
   125   63  125 1    
   126   63  126 1    
   127   64   65 am   BACKBONE|DICT|INTERRES
   128   64  127 1    
   129   65   66 2    
@<TRIPOS>SUBSTRUCTURE
     1 UNK         1 GROUP             0       ****    0 ROOT    
