@<TRIPOS>MOLECULE
3R135
127   129    1
SMALL
USER_CHARGES


@<TRIPOS>ATOM
      1 CA        -80.9579   24.0500  -71.6005 C.3       0 UNK        -0.1998 
      2 C         -81.4880   24.9216  -72.7289 C.2       0 UNK         0.4909 
      3 O         -82.3861   24.5033  -73.4605 O.2       0 UNK        -0.5240 
      4 N         -80.9537   26.1405  -72.8650 N.am      1 UNK        -0.4739 
      5 CA        -81.3449   27.0992  -73.9008 C.3       1 UNK         0.0864 
      6 C6        -81.0567   28.5634  -73.4840 C.3       11 UNK        -0.0881 
      7 S7        -81.9766   29.0269  -71.9757 S.3       11 UNK        -0.2682 
      8 C8        -80.9760   30.4043  -71.3127 C.3       11 UNK         0.0289 
      9 C9        -79.5315   30.0377  -70.9748 C.ar      11 UNK        -0.0687 
     10 C10       -79.2040   28.8009  -70.4045 C.ar      11 UNK        -0.0823 
     11 C11       -77.8711   28.4735  -70.1430 C.ar      11 UNK        -0.0830 
     12 C12       -76.8700   29.4198  -70.3741 C.ar      11 UNK        -0.1021 
     13 C13       -77.1756   30.6445  -70.9692 C.ar      11 UNK        -0.0753 
     14 C14       -78.5090   30.9509  -71.2585 C.ar      11 UNK        -0.0933 
     15 C15       -76.0600   31.6105  -71.3448 C.3       11 UNK         0.0166 
     16 S16       -75.1938   31.0711  -72.8602 S.3       11 UNK        -0.2615 
     17 C17       -74.0081   29.8388  -72.2111 C.3       11 UNK        -0.0865 
     18 CA        -72.6147   29.9341  -72.8885 C.3       10 UNK         0.0862 
     19 C         -71.5346   29.1223  -72.1098 C.2       10 UNK         0.5551 
     20 N         -70.7241   28.2840  -72.7455 N.am      10 UNK        -0.7319 
     21 O         -71.4181   29.2667  -70.8954 O.2       10 UNK        -0.5018 
     22 N         -72.6872   29.6004  -74.3200 N.am      10 UNK        -0.4509 
     23 C         -71.9028   30.1290  -75.2667 C.2       10 UNK         0.4899 
     24 O         -71.0865   31.0280  -75.0558 O.2       10 UNK        -0.4839 
     25 CA        -72.0463   29.5335  -76.6818 C.3       9 UNK         0.0222 
     26 CB        -70.9393   30.0033  -77.6489 C.3       9 UNK        -0.1966 
     27 N         -72.1409   28.0679  -76.6842 N.am      9 UNK        -0.4218 
     28 C         -71.2625   27.1883  -76.1758 C.2       9 UNK         0.5020 
     29 O         -70.2140   27.5217  -75.6217 O.2       9 UNK        -0.5274 
     30 CA        -71.6078   25.6866  -76.2536 C.3       8 UNK         0.0270 
     31 CB        -71.6391   25.0690  -74.8442 C.3       8 UNK        -0.1976 
     32 N         -72.8887   25.4143  -76.9086 N.am      8 UNK        -0.4313 
     33 C         -73.0980   25.3735  -78.2309 C.2       8 UNK         0.5041 
     34 O         -72.2031   25.4702  -79.0708 O.2       8 UNK        -0.5577 
     35 CA        -74.5651   25.2726  -78.6896 C.3       7 UNK         0.0284 
     36 CB        -75.0450   23.8119  -78.7109 C.3       7 UNK        -0.1958 
     37 N         -75.4632   26.0803  -77.8569 N.am      7 UNK        -0.4454 
     38 C         -75.4279   27.4186  -77.7797 C.2       7 UNK         0.5089 
     39 O         -74.6753   28.1205  -78.4538 O.2       7 UNK        -0.5125 
     40 CA        -76.3381   28.0903  -76.7395 C.3       6 UNK         0.0408 
     41 CB        -77.6659   28.5192  -77.3783 C.3       6 UNK        -0.1791 
     42 N         -76.5903   27.2444  -75.5686 N.am      6 UNK        -0.4762 
     43 C         -75.6604   26.9633  -74.6438 C.2       6 UNK         0.5007 
     44 O         -74.5029   27.3822  -74.6955 O.2       6 UNK        -0.5032 
     45 CA        -76.0844   26.0553  -73.4707 C.3       5 UNK         0.0783 
     46 C46       -77.1177   26.7847  -72.5848 C.3       11 UNK        -0.0857 
     47 S47       -77.6445   25.8573  -71.0960 S.3       11 UNK        -0.2512 
     48 C48       -77.4852   27.0620  -69.7228 C.3       11 UNK         0.0225 
     49 N         -76.5308   24.7191  -73.8845 N.am      5 UNK        -0.4615 
     50 C         -75.8267   23.8590  -74.6343 C.2       4 UNK         0.5053 
     51 O         -74.7786   24.1507  -75.2047 O.2       4 UNK        -0.5105 
     52 CA        -76.3561   22.4199  -74.7730 C.3       4 UNK         0.0263 
     53 CB        -75.4924   21.4665  -73.9319 C.3       4 UNK        -0.1981 
     54 N         -77.7561   22.2681  -74.3655 N.am      4 UNK        -0.4224 
     55 C         -78.8504   22.5664  -75.0791 C.2       3 UNK         0.4895 
     56 O         -79.9783   22.4300  -74.6075 O.2       3 UNK        -0.5091 
     57 CA        -78.7193   23.0612  -76.5287 C.3       3 UNK         0.0250 
     58 CB        -78.8079   21.8936  -77.5278 C.3       3 UNK        -0.1996 
     59 N         -79.7941   24.0152  -76.7662 N.am      3 UNK        -0.4254 
     60 C         -79.7664   24.9992  -77.6695 C.2       2 UNK         0.5004 
     61 O         -78.8762   25.1341  -78.5094 O.2       2 UNK        -0.5226 
     62 CA        -80.9015   26.0377  -77.5978 C.3       2 UNK         0.0269 
     63 CB        -82.0864   25.5956  -78.4715 C.3       2 UNK        -0.1926 
     64 N         -81.3831   26.3371  -76.2403 N.am      2 UNK        -0.4687 
     65 C         -80.6225   26.7428  -75.2116 C.2       1 UNK         0.5165 
     66 O         -79.3952   26.8383  -75.2618 O.2       1 UNK        -0.5079 
     67 H67       -81.7831   23.5636  -71.0810 H         1 UNK         0.0900 
     68 H68       -80.3988   24.6314  -70.8681 H         1 UNK         0.0900 
     69 H69       -80.3025   23.2762  -71.9985 H         1 UNK         0.0900 
     70 H70       -80.2027   26.4327  -72.2566 H         1 UNK         0.2959 
     71 H71       -82.4217   27.0149  -74.0656 H         1 UNK         0.1079 
     72 H72       -79.9872   28.7111  -73.3233 H         1 UNK         0.0837 
     73 H73       -81.3440   29.2536  -74.2796 H         1 UNK         0.0837 
     74 H74       -81.4571   30.7792  -70.4086 H         1 UNK         0.0685 
     75 H75       -81.0023   31.2201  -72.0370 H         1 UNK         0.0685 
     76 H76       -79.9777   28.0706  -70.2122 H         1 UNK         0.1434 
     77 H77       -75.8406   29.1664  -70.1674 H         1 UNK         0.1329 
     78 H78       -78.7491   31.8984  -71.7214 H         1 UNK         0.1335 
     79 H79       -76.4710   32.6060  -71.5194 H         1 UNK         0.0680 
     80 H80       -75.3556   31.7173  -70.5187 H         1 UNK         0.0680 
     81 H81       -73.9073   29.9957  -71.1364 H         1 UNK         0.1032 
     82 H82       -74.4271   28.8396  -72.3338 H         1 UNK         0.1032 
     83 H83       -72.2954   30.9742  -72.7996 H         1 UNK         0.0461 
     84 H84       -70.7559   28.1790  -73.7524 H         1 UNK         0.3453 
     85 H85       -70.0322   27.7798  -72.2149 H         1 UNK         0.3453 
     86 H86       -73.3151   28.8378  -74.5639 H         1 UNK         0.2984 
     87 H87       -72.9982   29.9004  -77.0678 H         1 UNK         0.0554 
     88 H88       -71.0869   29.5940  -78.6482 H         1 UNK         0.0847 
     89 H89       -69.9485   29.7030  -77.3060 H         1 UNK         0.0847 
     90 H90       -70.9359   31.0900  -77.7426 H         1 UNK         0.0847 
     91 H91       -72.9811   27.6961  -77.1086 H         1 UNK         0.3141 
     92 H92       -70.8128   25.2005  -76.8224 H         1 UNK         0.0743 
     93 H93       -70.6796   25.1872  -74.3390 H         1 UNK         0.0784 
     94 H94       -72.3984   25.5390  -74.2174 H         1 UNK         0.0784 
     95 H95       -71.8540   24.0009  -74.8836 H         1 UNK         0.0784 
     96 H96       -73.6767   25.2396  -76.2876 H         1 UNK         0.3213 
     97 H97       -74.6204   25.6619  -79.7087 H         1 UNK         0.0855 
     98 H98       -74.9856   23.3469  -77.7274 H         1 UNK         0.0814 
     99 H99       -74.4327   23.2144  -79.3875 H         1 UNK         0.0814 
    100 H100      -76.0766   23.7375  -79.0566 H         1 UNK         0.0814 
    101 H101      -76.1116   25.5887  -77.2601 H         1 UNK         0.3105 
    102 H102      -75.8300   28.9937  -76.3944 H         1 UNK         0.0547 
    103 H103      -78.3050   29.0344  -76.6612 H         1 UNK         0.0837 
    104 H104      -77.4951   29.2023  -78.2113 H         1 UNK         0.0837 
    105 H105      -78.2159   27.6640  -77.7672 H         1 UNK         0.0837 
    106 H106      -77.5463   26.9159  -75.4391 H         1 UNK         0.3020 
    107 H107      -75.1875   25.9005  -72.8666 H         1 UNK         0.1245 
    108 H108      -78.0181   27.0268  -73.1470 H         1 UNK         0.0781 
    109 H109      -76.6878   27.7408  -72.3002 H         1 UNK         0.0781 
    110 H110      -76.4585   27.0384  -69.3544 H         1 UNK         0.0836 
    111 H111      -78.1138   26.7414  -68.8909 H         1 UNK         0.0836 
    112 H112      -77.3825   24.3935  -73.4524 H         1 UNK         0.3022 
    113 H113      -76.2446   22.1204  -75.8163 H         1 UNK         0.0747 
    114 H114      -75.8044   20.4298  -74.0606 H         1 UNK         0.0793 
    115 H115      -74.4436   21.5248  -74.2278 H         1 UNK         0.0793 
    116 H116      -75.5435   21.7038  -72.8684 H         1 UNK         0.0793 
    117 H117      -77.8956   21.9136  -73.4303 H         1 UNK         0.3047 
    118 H118      -77.7749   23.5863  -76.6683 H         1 UNK         0.0822 
    119 H119      -78.0165   21.1645  -77.3509 H         1 UNK         0.0807 
    120 H120      -78.7031   22.2410  -78.5558 H         1 UNK         0.0807 
    121 H121      -79.7606   21.3686  -77.4475 H         1 UNK         0.0807 
    122 H122      -80.5452   23.9820  -76.0869 H         1 UNK         0.2946 
    123 H123      -80.5070   26.9683  -78.0102 H         1 UNK         0.1144 
    124 H124      -81.7622   25.3854  -79.4919 H         1 UNK         0.0793 
    125 H125      -82.8491   26.3723  -78.5308 H         1 UNK         0.0793 
    126 H126      -82.5565   24.6900  -78.0860 H         1 UNK         0.0793 
    127 H127      -82.3792   26.2523  -76.0946 H         1 UNK         0.2896 
@<TRIPOS>BOND
     1    1    2 1    
     2    1   67 1    
     3    1   68 1    
     4    1   69 1    
     5    2    3 2    
     6    2    4 am   BACKBONE|DICT|INTERRES
     7    4    5 1    
     8    4   70 1    
     9    5    6 1    
    10    5   65 1    
    11    5   71 1    
    12    6    7 1    
    13    6   72 1    
    14    6   73 1    
    15    7    8 1    
    16    8    9 1    
    17    8   74 1    
    18    8   75 1    
    19    9   10 ar   
    20    9   14 ar   
    21   10   11 ar   
    22   10   76 1    
    23   11   12 ar   
    24   11   48 1    
    25   12   13 ar   
    26   12   77 1    
    27   13   14 ar   
    28   13   15 1    
    29   14   78 1    
    30   15   16 1    
    31   15   79 1    
    32   15   80 1    
    33   16   17 1    
    34   17   18 1    
    35   17   81 1    
    36   17   82 1    
    37   18   19 1    
    38   18   22 1    
    39   18   83 1    
    40   19   20 am   BACKBONE|DICT|INTERRES
    41   19   21 2    
    42   20   84 1    
    43   20   85 1    
    44   22   23 am   BACKBONE|DICT|INTERRES
    45   22   86 1    
    46   23   24 2    
    47   23   25 1    
    48   25   26 1    
    49   25   27 1    
    50   25   87 1    
    51   26   88 1    
    52   26   89 1    
    53   26   90 1    
    54   27   28 am   BACKBONE|DICT|INTERRES
    55   27   91 1    
    56   28   29 2    
    57   28   30 1    
    58   30   31 1    
    59   30   32 1    
    60   30   92 1    
    61   31   93 1    
    62   31   94 1    
    63   31   95 1    
    64   32   33 am   BACKBONE|DICT|INTERRES
    65   32   96 1    
    66   33   34 2    
    67   33   35 1    
    68   35   36 1    
    69   35   37 1    
    70   35   97 1    
    71   36   98 1    
    72   36   99 1    
    73   36  100 1    
    74   37   38 am   BACKBONE|DICT|INTERRES
    75   37  101 1    
    76   38   39 2    
    77   38   40 1    
    78   40   41 1    
    79   40   42 1    
    80   40  102 1    
    81   41  103 1    
    82   41  104 1    
    83   41  105 1    
    84   42   43 am   BACKBONE|DICT|INTERRES
    85   42  106 1    
    86   43   44 2    
    87   43   45 1    
    88   45   46 1    
    89   45   49 1    
    90   45  107 1    
    91   46   47 1    
    92   46  108 1    
    93   46  109 1    
    94   47   48 1    
    95   48  110 1    
    96   48  111 1    
    97   49   50 am   BACKBONE|DICT|INTERRES
    98   49  112 1    
    99   50   51 2    
   100   50   52 1    
   101   52   53 1    
   102   52   54 1    
   103   52  113 1    
   104   53  114 1    
   105   53  115 1    
   106   53  116 1    
   107   54   55 am   BACKBONE|DICT|INTERRES
   108   54  117 1    
   109   55   56 2    
   110   55   57 1    
   111   57   58 1    
   112   57   59 1    
   113   57  118 1    
   114   58  119 1    
   115   58  120 1    
   116   58  121 1    
   117   59   60 am   BACKBONE|DICT|INTERRES
   118   59  122 1    
   119   60   61 2    
   120   60   62 1    
   121   62   63 1    
   122   62   64 1    
   123   62  123 1    
   124   63  124 1    
   125   63  125 1    
   126   63  126 1    
   127   64   65 am   BACKBONE|DICT|INTERRES
   128   64  127 1    
   129   65   66 2    
@<TRIPOS>SUBSTRUCTURE
     1 UNK         1 GROUP             0       ****    0 ROOT    
