@<TRIPOS>MOLECULE
3R135
127   129    1
SMALL
USER_CHARGES


@<TRIPOS>ATOM
      1 CA        -75.3393   25.5922  -73.2550 C.3       0 UNK        -0.1998 
      2 C         -76.3992   25.0414  -72.3213 C.2       0 UNK         0.4909 
      3 O         -76.0768   24.6320  -71.2060 O.2       0 UNK        -0.5240 
      4 N         -77.6525   25.0103  -72.7842 N.am      1 UNK        -0.4739 
      5 CA        -78.8131   24.5140  -72.0380 C.3       1 UNK         0.0864 
      6 C6        -79.7682   25.6654  -71.6249 C.3       11 UNK        -0.0881 
      7 S7        -79.0690   26.6098  -70.2293 S.3       11 UNK        -0.2682 
      8 C8        -79.9481   28.1970  -70.3481 C.3       11 UNK         0.0289 
      9 C9        -79.1198   29.2712  -71.0407 C.ar      11 UNK        -0.0687 
     10 C10       -79.5583   29.8423  -72.2388 C.ar      11 UNK        -0.0823 
     11 C11       -78.8453   30.8923  -72.8273 C.ar      11 UNK        -0.0830 
     12 C12       -77.6825   31.3652  -72.2126 C.ar      11 UNK        -0.1021 
     13 C13       -77.2281   30.7995  -71.0176 C.ar      11 UNK        -0.0753 
     14 C14       -77.9498   29.7499  -70.4403 C.ar      11 UNK        -0.0933 
     15 C15       -76.0045   31.3666  -70.3079 C.3       11 UNK         0.0166 
     16 S16       -74.4470   30.5981  -70.8570 S.3       11 UNK        -0.2615 
     17 C17       -74.1140   31.4831  -72.4206 C.3       11 UNK        -0.0865 
     18 CA        -73.9430   30.5039  -73.6174 C.3       10 UNK         0.0862 
     19 C         -74.0392   31.2092  -75.0075 C.2       10 UNK         0.5551 
     20 N         -73.3564   30.7262  -76.0392 N.am      10 UNK        -0.7319 
     21 O         -74.7654   32.1876  -75.1642 O.2       10 UNK        -0.5018 
     22 N         -72.7678   29.6253  -73.4613 N.am      10 UNK        -0.4509 
     23 C         -71.4853   30.0187  -73.4759 C.2       10 UNK         0.4899 
     24 O         -71.1310   31.1940  -73.5770 O.2       10 UNK        -0.4839 
     25 CA        -70.3929   28.9368  -73.3605 C.3       9 UNK         0.0222 
     26 CB        -69.7085   29.0193  -71.9853 C.3       9 UNK        -0.1966 
     27 N         -70.8293   27.5541  -73.5872 N.am      9 UNK        -0.4218 
     28 C         -71.3486   27.0578  -74.7183 C.2       9 UNK         0.5020 
     29 O         -71.6110   27.7427  -75.7099 O.2       9 UNK        -0.5274 
     30 CA        -71.6259   25.5455  -74.7471 C.3       8 UNK         0.0270 
     31 CB        -71.7501   24.8957  -73.3490 C.3       8 UNK        -0.1976 
     32 N         -72.8244   25.3132  -75.5479 N.am      8 UNK        -0.4313 
     33 C         -73.1306   24.1818  -76.1961 C.2       8 UNK         0.5041 
     34 O         -72.4722   23.1446  -76.1065 O.2       8 UNK        -0.5577 
     35 CA        -74.3723   24.2004  -77.1129 C.3       7 UNK         0.0284 
     36 CB        -75.5418   23.4310  -76.4734 C.3       7 UNK        -0.1958 
     37 N         -74.8184   25.5508  -77.4682 N.am      7 UNK        -0.4454 
     38 C         -74.1339   26.4081  -78.2397 C.2       7 UNK         0.5089 
     39 O         -73.0920   26.1071  -78.8227 O.2       7 UNK        -0.5125 
     40 CA        -74.6846   27.8411  -78.3849 C.3       6 UNK         0.0408 
     41 CB        -74.9079   28.1929  -79.8657 C.3       6 UNK        -0.1791 
     42 N         -75.9273   28.1005  -77.6509 N.am      6 UNK        -0.4762 
     43 C         -76.0615   28.2101  -76.3198 C.2       6 UNK         0.5007 
     44 O         -75.1403   28.0370  -75.5237 O.2       6 UNK        -0.5032 
     45 CA        -77.4875   28.5013  -75.8114 C.3       5 UNK         0.0783 
     46 C46       -77.7815   30.0223  -75.8726 C.3       11 UNK        -0.0857 
     47 S47       -79.5228   30.4194  -75.4900 S.3       11 UNK        -0.2512 
     48 C48       -79.3656   31.5674  -74.0888 C.3       11 UNK         0.0225 
     49 N         -78.4590   27.7205  -76.5851 N.am      5 UNK        -0.4615 
     50 C         -78.6764   26.4110  -76.4416 C.2       4 UNK         0.5053 
     51 O         -78.1437   25.7071  -75.5779 O.2       4 UNK        -0.5105 
     52 CA        -79.6104   25.7819  -77.4765 C.3       4 UNK         0.0263 
     53 CB        -78.8186   25.3654  -78.7309 C.3       4 UNK        -0.1981 
     54 N         -80.2577   24.6227  -76.8794 N.am      4 UNK        -0.4224 
     55 C         -81.3858   24.0453  -77.3091 C.2       3 UNK         0.4895 
     56 O         -82.0159   24.4411  -78.2914 O.2       3 UNK        -0.5091 
     57 CA        -81.9318   22.8495  -76.5006 C.3       3 UNK         0.0250 
     58 CB        -82.4164   21.7028  -77.4136 C.3       3 UNK        -0.1996 
     59 N         -81.0224   22.3502  -75.4592 N.am      3 UNK        -0.4254 
     60 C         -79.8330   21.7512  -75.6107 C.2       2 UNK         0.5004 
     61 O         -79.3087   21.5216  -76.7014 O.2       2 UNK        -0.5226 
     62 CA        -79.0944   21.3947  -74.3072 C.3       2 UNK         0.0269 
     63 CB        -77.8473   20.5253  -74.5555 C.3       2 UNK        -0.1926 
     64 N         -78.6916   22.5870  -73.5545 N.am      2 UNK        -0.4687 
     65 C         -79.4954   23.3783  -72.8272 C.2       1 UNK         0.5165 
     66 O         -80.7154   23.2156  -72.7599 O.2       1 UNK        -0.5079 
     67 H67       -75.7697   25.9238  -74.1974 H         1 UNK         0.0900 
     68 H68       -74.6125   24.8122  -73.4705 H         1 UNK         0.0900 
     69 H69       -74.8268   26.4376  -72.7970 H         1 UNK         0.0900 
     70 H70       -77.8458   25.3232  -73.7340 H         1 UNK         0.2959 
     71 H71       -78.4822   24.0196  -71.1218 H         1 UNK         0.1079 
     72 H72       -79.9627   26.3292  -72.4694 H         1 UNK         0.0837 
     73 H73       -80.7375   25.2877  -71.2948 H         1 UNK         0.0837 
     74 H74       -80.9084   28.0536  -70.8460 H         1 UNK         0.0685 
     75 H75       -80.1811   28.5375  -69.3383 H         1 UNK         0.0685 
     76 H76       -80.4707   29.4918  -72.7020 H         1 UNK         0.1434 
     77 H77       -77.1508   32.1975  -72.6507 H         1 UNK         0.1329 
     78 H78       -77.6169   29.3202  -69.5052 H         1 UNK         0.1335 
     79 H79       -75.9526   32.4479  -70.4443 H         1 UNK         0.0680 
     80 H80       -76.1017   31.2095  -69.2325 H         1 UNK         0.0680 
     81 H81       -73.2242   32.0999  -72.2914 H         1 UNK         0.1032 
     82 H82       -74.9214   32.1891  -72.6081 H         1 UNK         0.1032 
     83 H83       -74.8063   29.8382  -73.6013 H         1 UNK         0.0461 
     84 H84       -72.7968   29.8924  -75.9268 H         1 UNK         0.3453 
     85 H85       -73.4226   31.1801  -76.9354 H         1 UNK         0.3453 
     86 H86       -72.9662   28.6382  -73.4073 H         1 UNK         0.2984 
     87 H87       -69.6458   29.1646  -74.1235 H         1 UNK         0.0554 
     88 H88       -68.8593   28.3388  -71.9195 H         1 UNK         0.0847 
     89 H89       -70.3993   28.7776  -71.1764 H         1 UNK         0.0847 
     90 H90       -69.3273   30.0240  -71.7962 H         1 UNK         0.0847 
     91 H91       -70.6708   26.9101  -72.8256 H         1 UNK         0.3141 
     92 H92       -70.7804   25.0883  -75.2651 H         1 UNK         0.0743 
     93 H93       -72.4669   25.4169  -72.7144 H         1 UNK         0.0784 
     94 H94       -72.0664   23.8548  -73.4187 H         1 UNK         0.0784 
     95 H95       -70.7911   24.8926  -72.8298 H         1 UNK         0.0784 
     96 H96       -73.3746   26.1437  -75.7345 H         1 UNK         0.3213 
     97 H97       -74.0938   23.6868  -78.0357 H         1 UNK         0.0855 
     98 H98       -75.9053   23.9149  -75.5679 H         1 UNK         0.0814 
     99 H99       -75.2385   22.4189  -76.2021 H         1 UNK         0.0814 
    100 H100      -76.3827   23.3389  -77.1608 H         1 UNK         0.0814 
    101 H101      -75.6631   25.8849  -77.0278 H         1 UNK         0.3105 
    102 H102      -73.9187   28.5110  -77.9889 H         1 UNK         0.0547 
    103 H103      -73.9887   28.0750  -80.4413 H         1 UNK         0.0837 
    104 H104      -75.6621   27.5517  -80.3235 H         1 UNK         0.0837 
    105 H105      -75.2271   29.2283  -79.9851 H         1 UNK         0.0837 
    106 H106      -76.7528   28.2303  -78.2170 H         1 UNK         0.3020 
    107 H107      -77.5402   28.1841  -74.7665 H         1 UNK         0.1245 
    108 H108      -77.5684   30.4234  -76.8656 H         1 UNK         0.0781 
    109 H109      -77.1247   30.5584  -75.1852 H         1 UNK         0.0781 
    110 H110      -80.3461   31.9960  -73.8769 H         1 UNK         0.0836 
    111 H111      -78.7268   32.4016  -74.3838 H         1 UNK         0.0836 
    112 H112      -78.9773   28.2301  -77.2863 H         1 UNK         0.3022 
    113 H113      -80.3749   26.5129  -77.7490 H         1 UNK         0.0747 
    114 H114      -79.4744   24.9485  -79.4954 H         1 UNK         0.0793 
    115 H115      -78.3066   26.2181  -79.1782 H         1 UNK         0.0793 
    116 H116      -78.0626   24.6148  -78.4973 H         1 UNK         0.0793 
    117 H117      -79.7940   24.2607  -76.0564 H         1 UNK         0.3047 
    118 H118      -82.8040   23.2318  -75.9683 H         1 UNK         0.0822 
    119 H119      -82.8197   20.8745  -76.8312 H         1 UNK         0.0807 
    120 H120      -81.6125   21.3143  -78.0394 H         1 UNK         0.0807 
    121 H121      -83.2090   22.0420  -78.0816 H         1 UNK         0.0807 
    122 H122      -81.3001   22.5580  -74.5031 H         1 UNK         0.2946 
    123 H123      -79.7870   20.8127  -73.6942 H         1 UNK         0.1144 
    124 H124      -77.3804   20.2231  -73.6179 H         1 UNK         0.0793 
    125 H125      -77.0990   21.0509  -75.1494 H         1 UNK         0.0793 
    126 H126      -78.1082   19.6130  -75.0938 H         1 UNK         0.0793 
    127 H127      -77.7082   22.8154  -73.5707 H         1 UNK         0.2896 
@<TRIPOS>BOND
     1    1    2 1    
     2    1   67 1    
     3    1   68 1    
     4    1   69 1    
     5    2    3 2    
     6    2    4 am   BACKBONE|DICT|INTERRES
     7    4    5 1    
     8    4   70 1    
     9    5    6 1    
    10    5   65 1    
    11    5   71 1    
    12    6    7 1    
    13    6   72 1    
    14    6   73 1    
    15    7    8 1    
    16    8    9 1    
    17    8   74 1    
    18    8   75 1    
    19    9   10 ar   
    20    9   14 ar   
    21   10   11 ar   
    22   10   76 1    
    23   11   12 ar   
    24   11   48 1    
    25   12   13 ar   
    26   12   77 1    
    27   13   14 ar   
    28   13   15 1    
    29   14   78 1    
    30   15   16 1    
    31   15   79 1    
    32   15   80 1    
    33   16   17 1    
    34   17   18 1    
    35   17   81 1    
    36   17   82 1    
    37   18   19 1    
    38   18   22 1    
    39   18   83 1    
    40   19   20 am   BACKBONE|DICT|INTERRES
    41   19   21 2    
    42   20   84 1    
    43   20   85 1    
    44   22   23 am   BACKBONE|DICT|INTERRES
    45   22   86 1    
    46   23   24 2    
    47   23   25 1    
    48   25   26 1    
    49   25   27 1    
    50   25   87 1    
    51   26   88 1    
    52   26   89 1    
    53   26   90 1    
    54   27   28 am   BACKBONE|DICT|INTERRES
    55   27   91 1    
    56   28   29 2    
    57   28   30 1    
    58   30   31 1    
    59   30   32 1    
    60   30   92 1    
    61   31   93 1    
    62   31   94 1    
    63   31   95 1    
    64   32   33 am   BACKBONE|DICT|INTERRES
    65   32   96 1    
    66   33   34 2    
    67   33   35 1    
    68   35   36 1    
    69   35   37 1    
    70   35   97 1    
    71   36   98 1    
    72   36   99 1    
    73   36  100 1    
    74   37   38 am   BACKBONE|DICT|INTERRES
    75   37  101 1    
    76   38   39 2    
    77   38   40 1    
    78   40   41 1    
    79   40   42 1    
    80   40  102 1    
    81   41  103 1    
    82   41  104 1    
    83   41  105 1    
    84   42   43 am   BACKBONE|DICT|INTERRES
    85   42  106 1    
    86   43   44 2    
    87   43   45 1    
    88   45   46 1    
    89   45   49 1    
    90   45  107 1    
    91   46   47 1    
    92   46  108 1    
    93   46  109 1    
    94   47   48 1    
    95   48  110 1    
    96   48  111 1    
    97   49   50 am   BACKBONE|DICT|INTERRES
    98   49  112 1    
    99   50   51 2    
   100   50   52 1    
   101   52   53 1    
   102   52   54 1    
   103   52  113 1    
   104   53  114 1    
   105   53  115 1    
   106   53  116 1    
   107   54   55 am   BACKBONE|DICT|INTERRES
   108   54  117 1    
   109   55   56 2    
   110   55   57 1    
   111   57   58 1    
   112   57   59 1    
   113   57  118 1    
   114   58  119 1    
   115   58  120 1    
   116   58  121 1    
   117   59   60 am   BACKBONE|DICT|INTERRES
   118   59  122 1    
   119   60   61 2    
   120   60   62 1    
   121   62   63 1    
   122   62   64 1    
   123   62  123 1    
   124   63  124 1    
   125   63  125 1    
   126   63  126 1    
   127   64   65 am   BACKBONE|DICT|INTERRES
   128   64  127 1    
   129   65   66 2    
@<TRIPOS>SUBSTRUCTURE
     1 UNK         1 GROUP             0       ****    0 ROOT    
