@<TRIPOS>MOLECULE
3R135
127   129    1
SMALL
USER_CHARGES


@<TRIPOS>ATOM
      1 CA        -83.2423   29.1894  -75.5317 C.3       0 UNK        -0.1998 
      2 C         -81.9747   29.0437  -74.7040 C.2       0 UNK         0.4909 
      3 O         -81.0569   29.8541  -74.8377 O.2       0 UNK        -0.5240 
      4 N         -81.9064   28.0092  -73.8553 N.am      1 UNK        -0.4739 
      5 CA        -80.7640   27.6934  -72.9898 C.3       1 UNK         0.0864 
      6 C6        -81.2364   26.9029  -71.7397 C.3       11 UNK        -0.0881 
      7 S7        -80.0490   26.6981  -70.3597 S.3       11 UNK        -0.2682 
      8 C8        -79.2177   28.3161  -70.1710 C.3       11 UNK         0.0289 
      9 C9        -78.0562   28.5044  -71.1414 C.ar      11 UNK        -0.0687 
     10 C10       -77.0839   27.5113  -71.2817 C.ar      11 UNK        -0.0823 
     11 C11       -76.0526   27.6419  -72.2164 C.ar      11 UNK        -0.0830 
     12 C12       -75.9837   28.8019  -72.9963 C.ar      11 UNK        -0.1021 
     13 C13       -76.9099   29.8390  -72.8192 C.ar      11 UNK        -0.0753 
     14 C14       -77.9471   29.6756  -71.8957 C.ar      11 UNK        -0.0933 
     15 C15       -76.8220   31.1468  -73.6064 C.3       11 UNK         0.0166 
     16 S16       -75.1266   31.7785  -73.8577 S.3       11 UNK        -0.2615 
     17 C17       -74.4946   31.9013  -72.1425 C.3       11 UNK        -0.0865 
     18 CA        -72.9843   31.5552  -72.0153 C.3       10 UNK         0.0862 
     19 C         -72.5359   31.5844  -70.5246 C.2       10 UNK         0.5551 
     20 N         -72.0881   30.4793  -69.9418 N.am      10 UNK        -0.7319 
     21 O         -72.5961   32.6332  -69.8877 O.2       10 UNK        -0.5018 
     22 N         -72.6397   30.3344  -72.7625 N.am      10 UNK        -0.4509 
     23 C         -71.4077   29.9575  -73.1267 C.2       10 UNK         0.4899 
     24 O         -70.3747   30.5192  -72.7627 O.2       10 UNK        -0.4839 
     25 CA        -71.3188   28.7669  -74.0995 C.3       9 UNK         0.0222 
     26 CB        -71.2418   27.4393  -73.3291 C.3       9 UNK        -0.1966 
     27 N         -72.4300   28.7198  -75.0585 N.am      9 UNK        -0.4218 
     28 C         -72.6646   29.6346  -76.0108 C.2       9 UNK         0.5020 
     29 O         -71.9408   30.6104  -76.2180 O.2       9 UNK        -0.5274 
     30 CA        -73.8991   29.3867  -76.8980 C.3       8 UNK         0.0270 
     31 CB        -74.2091   30.5655  -77.8389 C.3       8 UNK        -0.1976 
     32 N         -73.7372   28.1652  -77.6906 N.am      8 UNK        -0.4313 
     33 C         -73.9396   26.9304  -77.2200 C.2       8 UNK         0.5041 
     34 O         -74.3201   26.6994  -76.0699 O.2       8 UNK        -0.5577 
     35 CA        -73.6017   25.7649  -78.1528 C.3       7 UNK         0.0284 
     36 CB        -72.1710   25.2674  -77.8631 C.3       7 UNK        -0.1958 
     37 N         -74.5802   24.7053  -77.9283 N.am      7 UNK        -0.4454 
     38 C         -74.7246   23.5811  -78.6421 C.2       7 UNK         0.5089 
     39 O         -74.0325   23.3028  -79.6229 O.2       7 UNK        -0.5125 
     40 CA        -75.8446   22.6150  -78.2001 C.3       6 UNK         0.0408 
     41 CB        -75.5596   21.1434  -78.5668 C.3       6 UNK        -0.1791 
     42 N         -76.1964   22.7672  -76.7841 N.am      6 UNK        -0.4762 
     43 C         -75.4532   22.4691  -75.7076 C.2       6 UNK         0.5007 
     44 O         -74.3805   21.8665  -75.7517 O.2       6 UNK        -0.5032 
     45 CA        -75.9804   22.9713  -74.3472 C.3       5 UNK         0.0783 
     46 C46       -75.3312   24.3344  -74.0164 C.3       11 UNK        -0.0857 
     47 S47       -75.6441   24.8616  -72.3062 S.3       11 UNK        -0.2512 
     48 C48       -74.9808   26.5632  -72.3422 C.3       11 UNK         0.0225 
     49 N         -77.4446   23.0564  -74.3138 N.am      5 UNK        -0.4615 
     50 C         -78.2745   22.0058  -74.2880 C.2       4 UNK         0.5053 
     51 O         -77.8994   20.8356  -74.2152 O.2       4 UNK        -0.5105 
     52 CA        -79.7764   22.3160  -74.3824 C.3       4 UNK         0.0263 
     53 CB        -80.3611   22.6091  -72.9905 C.3       4 UNK        -0.1981 
     54 N         -80.0329   23.4467  -75.2793 N.am      4 UNK        -0.4224 
     55 C         -80.0625   23.3491  -76.6181 C.2       3 UNK         0.4895 
     56 O         -79.9556   22.2838  -77.2258 O.2       3 UNK        -0.5091 
     57 CA        -80.2270   24.6493  -77.4287 C.3       3 UNK         0.0250 
     58 CB        -81.7100   24.9004  -77.7456 C.3       3 UNK        -0.1996 
     59 N         -79.6718   25.8306  -76.7667 N.am      3 UNK        -0.4254 
     60 C         -78.3720   26.0288  -76.5071 C.2       2 UNK         0.5004 
     61 O         -77.4796   25.2645  -76.8664 O.2       2 UNK        -0.5226 
     62 CA        -78.0058   27.2642  -75.6695 C.3       2 UNK         0.0269 
     63 CB        -77.5997   28.4205  -76.5952 C.3       2 UNK        -0.1926 
     64 N         -79.0662   27.7167  -74.7600 N.am      2 UNK        -0.4687 
     65 C         -79.6622   26.9818  -73.8087 C.2       1 UNK         0.5165 
     66 O         -79.4241   25.7855  -73.6333 O.2       1 UNK        -0.5079 
     67 H67       -83.7142   30.1500  -75.3275 H         1 UNK         0.0900 
     68 H68       -83.0034   29.1460  -76.5940 H         1 UNK         0.0900 
     69 H69       -83.9651   28.4033  -75.3138 H         1 UNK         0.0900 
     70 H70       -82.6824   27.3639  -73.8045 H         1 UNK         0.2959 
     71 H71       -80.3550   28.6432  -72.6491 H         1 UNK         0.1079 
     72 H72       -81.5847   25.9098  -72.0301 H         1 UNK         0.0837 
     73 H73       -82.1092   27.4008  -71.3139 H         1 UNK         0.0837 
     74 H74       -78.8260   28.3852  -69.1554 H         1 UNK         0.0685 
     75 H75       -79.9550   29.1144  -70.2693 H         1 UNK         0.0685 
     76 H76       -77.1462   26.6203  -70.6724 H         1 UNK         0.1434 
     77 H77       -75.1958   28.9083  -73.7268 H         1 UNK         0.1329 
     78 H78       -78.6791   30.4619  -71.7697 H         1 UNK         0.1335 
     79 H79       -77.3917   31.9279  -73.1005 H         1 UNK         0.0680 
     80 H80       -77.2957   31.0106  -74.5779 H         1 UNK         0.0680 
     81 H81       -74.6790   32.9170  -71.7876 H         1 UNK         0.1032 
     82 H82       -75.0786   31.2507  -71.4898 H         1 UNK         0.1032 
     83 H83       -72.4345   32.3649  -72.4990 H         1 UNK         0.0461 
     84 H84       -71.7978   30.5096  -68.9772 H         1 UNK         0.3453 
     85 H85       -72.0255   29.6206  -70.4638 H         1 UNK         0.3453 
     86 H86       -73.4243   29.8184  -73.1259 H         1 UNK         0.2984 
     87 H87       -70.3965   28.8779  -74.6735 H         1 UNK         0.0554 
     88 H88       -70.3657   27.4199  -72.6794 H         1 UNK         0.0847 
     89 H89       -71.1597   26.5885  -74.0059 H         1 UNK         0.0847 
     90 H90       -72.1148   27.2841  -72.6963 H         1 UNK         0.0847 
     91 H91       -73.0435   27.9104  -75.0361 H         1 UNK         0.3141 
     92 H92       -74.7540   29.2717  -76.2290 H         1 UNK         0.0743 
     93 H93       -73.4009   30.7425  -78.5496 H         1 UNK         0.0784 
     94 H94       -75.1237   30.3892  -78.4054 H         1 UNK         0.0784 
     95 H95       -74.3541   31.4862  -77.2717 H         1 UNK         0.0784 
     96 H96       -73.3736   28.2805  -78.6262 H         1 UNK         0.3213 
     97 H97       -73.6774   26.0961  -79.1904 H         1 UNK         0.0855 
     98 H98       -72.0827   24.8742  -76.8493 H         1 UNK         0.0814 
     99 H99       -71.4461   26.0763  -77.9635 H         1 UNK         0.0814 
    100 H100      -71.8678   24.4809  -78.5537 H         1 UNK         0.0814 
    101 H101      -75.2330   24.8907  -77.1735 H         1 UNK         0.3105 
    102 H102      -76.7339   22.9205  -78.7532 H         1 UNK         0.0547 
    103 H103      -76.3586   20.4867  -78.2230 H         1 UNK         0.0837 
    104 H104      -74.6227   20.7896  -78.1363 H         1 UNK         0.0837 
    105 H105      -75.4827   21.0202  -79.6476 H         1 UNK         0.0837 
    106 H106      -77.0088   23.3551  -76.6241 H         1 UNK         0.3020 
    107 H107      -75.6643   22.2425  -73.5971 H         1 UNK         0.1245 
    108 H108      -75.7121   25.1024  -74.6889 H         1 UNK         0.0781 
    109 H109      -74.2488   24.3026  -74.1605 H         1 UNK         0.0781 
    110 H110      -74.4006   26.7083  -73.2542 H         1 UNK         0.0836 
    111 H111      -74.2828   26.6775  -71.5121 H         1 UNK         0.0836 
    112 H112      -77.8412   23.9862  -74.3159 H         1 UNK         0.3022 
    113 H113      -80.2792   21.4306  -74.7780 H         1 UNK         0.0747 
    114 H114      -81.4265   22.8327  -73.0459 H         1 UNK         0.0793 
    115 H115      -80.2441   21.7470  -72.3327 H         1 UNK         0.0793 
    116 H116      -79.8662   23.4525  -72.5076 H         1 UNK         0.0793 
    117 H117      -80.0686   24.3640  -74.8450 H         1 UNK         0.3047 
    118 H118      -79.6917   24.5151  -78.3714 H         1 UNK         0.0822 
    119 H119      -81.8368   25.7693  -78.3918 H         1 UNK         0.0807 
    120 H120      -82.2952   25.0655  -76.8400 H         1 UNK         0.0807 
    121 H121      -82.1476   24.0467  -78.2652 H         1 UNK         0.0807 
    122 H122      -80.3289   26.5200  -76.4330 H         1 UNK         0.2946 
    123 H123      -77.1433   26.9921  -75.0579 H         1 UNK         0.1144 
    124 H124      -77.1854   29.2523  -76.0295 H         1 UNK         0.0793 
    125 H125      -78.4462   28.7933  -77.1729 H         1 UNK         0.0793 
    126 H126      -76.8338   28.1040  -77.3047 H         1 UNK         0.0793 
    127 H127      -79.3894   28.6722  -74.8731 H         1 UNK         0.2896 
@<TRIPOS>BOND
     1    1    2 1    
     2    1   67 1    
     3    1   68 1    
     4    1   69 1    
     5    2    3 2    
     6    2    4 am   BACKBONE|DICT|INTERRES
     7    4    5 1    
     8    4   70 1    
     9    5    6 1    
    10    5   65 1    
    11    5   71 1    
    12    6    7 1    
    13    6   72 1    
    14    6   73 1    
    15    7    8 1    
    16    8    9 1    
    17    8   74 1    
    18    8   75 1    
    19    9   10 ar   
    20    9   14 ar   
    21   10   11 ar   
    22   10   76 1    
    23   11   12 ar   
    24   11   48 1    
    25   12   13 ar   
    26   12   77 1    
    27   13   14 ar   
    28   13   15 1    
    29   14   78 1    
    30   15   16 1    
    31   15   79 1    
    32   15   80 1    
    33   16   17 1    
    34   17   18 1    
    35   17   81 1    
    36   17   82 1    
    37   18   19 1    
    38   18   22 1    
    39   18   83 1    
    40   19   20 am   BACKBONE|DICT|INTERRES
    41   19   21 2    
    42   20   84 1    
    43   20   85 1    
    44   22   23 am   BACKBONE|DICT|INTERRES
    45   22   86 1    
    46   23   24 2    
    47   23   25 1    
    48   25   26 1    
    49   25   27 1    
    50   25   87 1    
    51   26   88 1    
    52   26   89 1    
    53   26   90 1    
    54   27   28 am   BACKBONE|DICT|INTERRES
    55   27   91 1    
    56   28   29 2    
    57   28   30 1    
    58   30   31 1    
    59   30   32 1    
    60   30   92 1    
    61   31   93 1    
    62   31   94 1    
    63   31   95 1    
    64   32   33 am   BACKBONE|DICT|INTERRES
    65   32   96 1    
    66   33   34 2    
    67   33   35 1    
    68   35   36 1    
    69   35   37 1    
    70   35   97 1    
    71   36   98 1    
    72   36   99 1    
    73   36  100 1    
    74   37   38 am   BACKBONE|DICT|INTERRES
    75   37  101 1    
    76   38   39 2    
    77   38   40 1    
    78   40   41 1    
    79   40   42 1    
    80   40  102 1    
    81   41  103 1    
    82   41  104 1    
    83   41  105 1    
    84   42   43 am   BACKBONE|DICT|INTERRES
    85   42  106 1    
    86   43   44 2    
    87   43   45 1    
    88   45   46 1    
    89   45   49 1    
    90   45  107 1    
    91   46   47 1    
    92   46  108 1    
    93   46  109 1    
    94   47   48 1    
    95   48  110 1    
    96   48  111 1    
    97   49   50 am   BACKBONE|DICT|INTERRES
    98   49  112 1    
    99   50   51 2    
   100   50   52 1    
   101   52   53 1    
   102   52   54 1    
   103   52  113 1    
   104   53  114 1    
   105   53  115 1    
   106   53  116 1    
   107   54   55 am   BACKBONE|DICT|INTERRES
   108   54  117 1    
   109   55   56 2    
   110   55   57 1    
   111   57   58 1    
   112   57   59 1    
   113   57  118 1    
   114   58  119 1    
   115   58  120 1    
   116   58  121 1    
   117   59   60 am   BACKBONE|DICT|INTERRES
   118   59  122 1    
   119   60   61 2    
   120   60   62 1    
   121   62   63 1    
   122   62   64 1    
   123   62  123 1    
   124   63  124 1    
   125   63  125 1    
   126   63  126 1    
   127   64   65 am   BACKBONE|DICT|INTERRES
   128   64  127 1    
   129   65   66 2    
@<TRIPOS>SUBSTRUCTURE
     1 UNK         1 GROUP             0       ****    0 ROOT    
