@<TRIPOS>MOLECULE
3R135
127   129    1
SMALL
USER_CHARGES


@<TRIPOS>ATOM
      1 CA        -81.8896   22.6396  -72.3682 C.3       0 UNK        -0.1998 
      2 C         -81.2951   23.8973  -72.9808 C.2       0 UNK         0.4909 
      3 O         -80.1769   23.8521  -73.4923 O.2       0 UNK        -0.5240 
      4 N         -82.0435   25.0095  -72.9512 N.am      1 UNK        -0.4739 
      5 CA        -81.6603   26.3554  -73.4119 C.3       1 UNK         0.0864 
      6 C6        -80.6876   27.0819  -72.4513 C.3       11 UNK        -0.0881 
      7 S7        -81.2559   27.1950  -70.7214 S.3       11 UNK        -0.2682 
      8 C8        -79.6788   27.0434  -69.7989 C.3       11 UNK         0.0289 
      9 C9        -78.5562   27.9929  -70.2351 C.ar      11 UNK        -0.0687 
     10 C10       -78.8159   29.2172  -70.8604 C.ar      11 UNK        -0.0823 
     11 C11       -77.7724   30.0288  -71.3090 C.ar      11 UNK        -0.0830 
     12 C12       -76.4510   29.6490  -71.0604 C.ar      11 UNK        -0.1021 
     13 C13       -76.1628   28.4391  -70.4137 C.ar      11 UNK        -0.0753 
     14 C14       -77.2258   27.6222  -70.0099 C.ar      11 UNK        -0.0933 
     15 C15       -74.7310   27.9487  -70.1719 C.3       11 UNK         0.0166 
     16 S16       -73.4602   29.2606  -70.0716 S.3       11 UNK        -0.2615 
     17 C17       -72.4873   28.9844  -71.5979 C.3       11 UNK        -0.0865 
     18 CA        -73.2313   29.4171  -72.8913 C.3       10 UNK         0.0862 
     19 C         -73.3419   30.9571  -73.1153 C.2       10 UNK         0.5551 
     20 N         -73.8469   31.3902  -74.2640 N.am      10 UNK        -0.7319 
     21 O         -72.9740   31.7632  -72.2646 O.2       10 UNK        -0.5018 
     22 N         -72.7721   28.6898  -74.0843 N.am      10 UNK        -0.4509 
     23 C         -71.5941   28.8656  -74.6968 C.2       10 UNK         0.4899 
     24 O         -70.6803   29.5528  -74.2368 O.2       10 UNK        -0.4839 
     25 CA        -71.4279   28.1945  -76.0744 C.3       9 UNK         0.0222 
     26 CB        -69.9645   28.1742  -76.5669 C.3       9 UNK        -0.1966 
     27 N         -72.0314   26.8604  -76.1670 N.am      9 UNK        -0.4218 
     28 C         -71.6837   25.7607  -75.4791 C.2       9 UNK         0.5020 
     29 O         -70.8032   25.7461  -74.6174 O.2       9 UNK        -0.5274 
     30 CA        -72.4228   24.4433  -75.7953 C.3       8 UNK         0.0270 
     31 CB        -73.0579   23.8523  -74.5273 C.3       8 UNK        -0.1976 
     32 N         -73.4400   24.5725  -76.8464 N.am      8 UNK        -0.4313 
     33 C         -73.1666   24.5421  -78.1574 C.2       8 UNK         0.5041 
     34 O         -72.0362   24.3708  -78.6160 O.2       8 UNK        -0.5577 
     35 CA        -74.3385   24.7681  -79.1278 C.3       7 UNK         0.0284 
     36 CB        -75.0776   23.4484  -79.4048 C.3       7 UNK        -0.1958 
     37 N         -75.3008   25.7944  -78.7078 N.am      7 UNK        -0.4454 
     38 C         -75.0127   27.0806  -78.4627 C.2       7 UNK         0.5089 
     39 O         -73.8672   27.5281  -78.4184 O.2       7 UNK        -0.5125 
     40 CA        -76.2015   28.0355  -78.2656 C.3       6 UNK         0.0408 
     41 CB        -77.3632   27.7517  -79.2353 C.3       6 UNK        -0.1791 
     42 N         -76.6955   28.0102  -76.8910 N.am      6 UNK        -0.4762 
     43 C         -76.1769   28.7265  -75.8843 C.2       6 UNK         0.5007 
     44 O         -75.1827   29.4466  -75.9879 O.2       6 UNK        -0.5032 
     45 CA        -76.8873   28.6069  -74.5238 C.3       5 UNK         0.0783 
     46 C46       -78.0984   29.5670  -74.4015 C.3       11 UNK        -0.0857 
     47 S47       -77.5639   31.2255  -73.8404 S.3       11 UNK        -0.2512 
     48 C48       -78.0864   31.3006  -72.0884 C.3       11 UNK         0.0225 
     49 N         -77.2037   27.2099  -74.2068 N.am      5 UNK        -0.4615 
     50 C         -76.2655   26.3544  -73.7711 C.2       4 UNK         0.5053 
     51 O         -75.0882   26.6724  -73.6067 O.2       4 UNK        -0.5105 
     52 CA        -76.6756   24.9015  -73.4902 C.3       4 UNK         0.0263 
     53 CB        -77.1915   24.7180  -72.0566 C.3       4 UNK        -0.1981 
     54 N         -77.6347   24.3632  -74.4508 N.am      4 UNK        -0.4224 
     55 C         -77.3131   24.0433  -75.7111 C.2       3 UNK         0.4895 
     56 O         -76.2195   24.2910  -76.2183 O.2       3 UNK        -0.5091 
     57 CA        -78.3750   23.3097  -76.5376 C.3       3 UNK         0.0250 
     58 CB        -78.5457   21.8640  -76.0419 C.3       3 UNK        -0.1996 
     59 N         -79.6581   24.0052  -76.4694 N.am      3 UNK        -0.4254 
     60 C         -80.1474   24.7858  -77.4419 C.2       2 UNK         0.5004 
     61 O         -79.5935   24.9494  -78.5290 O.2       2 UNK        -0.5226 
     62 CA        -81.4805   25.5113  -77.1755 C.3       2 UNK         0.0269 
     63 CB        -82.6324   24.7973  -77.9017 C.3       2 UNK        -0.1926 
     64 N         -81.8266   25.6522  -75.7573 N.am      2 UNK        -0.4687 
     65 C         -81.1320   26.3735  -74.8664 C.2       1 UNK         0.5165 
     66 O         -80.0971   26.9849  -75.1481 O.2       1 UNK        -0.5079 
     67 H67       -81.9609   21.8547  -73.1206 H         1 UNK         0.0900 
     68 H68       -81.2511   22.2814  -71.5613 H         1 UNK         0.0900 
     69 H69       -82.8855   22.8142  -71.9618 H         1 UNK         0.0900 
     70 H70       -82.9579   24.9594  -72.5236 H         1 UNK         0.2959 
     71 H71       -82.5829   26.9379  -73.4339 H         1 UNK         0.1079 
     72 H72       -79.7069   26.6121  -72.4819 H         1 UNK         0.0837 
     73 H73       -80.5489   28.1058  -72.7962 H         1 UNK         0.0837 
     74 H74       -79.8813   27.2117  -68.7406 H         1 UNK         0.0685 
     75 H75       -79.3404   26.0099  -69.8857 H         1 UNK         0.0685 
     76 H76       -79.8355   29.5303  -71.0325 H         1 UNK         0.1434 
     77 H77       -75.6556   30.2958  -71.3982 H         1 UNK         0.1329 
     78 H78       -77.0149   26.6802  -69.5223 H         1 UNK         0.1335 
     79 H79       -74.4706   27.2365  -70.9557 H         1 UNK         0.0680 
     80 H80       -74.6961   27.3924  -69.2340 H         1 UNK         0.0680 
     81 H81       -71.5329   29.5070  -71.5131 H         1 UNK         0.1032 
     82 H82       -72.2374   27.9232  -71.6466 H         1 UNK         0.1032 
     83 H83       -74.2560   29.0824  -72.7711 H         1 UNK         0.0461 
     84 H84       -73.9268   32.3806  -74.4274 H         1 UNK         0.3453 
     85 H85       -74.1925   30.7319  -74.9563 H         1 UNK         0.3453 
     86 H86       -73.4640   28.0927  -74.5181 H         1 UNK         0.2984 
     87 H87       -71.9915   28.8178  -76.7701 H         1 UNK         0.0554 
     88 H88       -69.5627   29.1854  -76.6418 H         1 UNK         0.0847 
     89 H89       -69.8852   27.7225  -77.5557 H         1 UNK         0.0847 
     90 H90       -69.3161   27.6176  -75.8897 H         1 UNK         0.0847 
     91 H91       -72.7635   26.7776  -76.8657 H         1 UNK         0.3141 
     92 H92       -71.6686   23.7320  -76.1386 H         1 UNK         0.0743 
     93 H93       -72.2885   23.4788  -73.8506 H         1 UNK         0.0784 
     94 H94       -73.6180   24.6057  -73.9790 H         1 UNK         0.0784 
     95 H95       -73.7255   23.0205  -74.7534 H         1 UNK         0.0784 
     96 H96       -74.4140   24.6581  -76.5567 H         1 UNK         0.3213 
     97 H97       -73.9069   25.1118  -80.0703 H         1 UNK         0.0855 
     98 H98       -75.5522   23.0522  -78.5069 H         1 UNK         0.0814 
     99 H99       -74.3877   22.6859  -79.7692 H         1 UNK         0.0814 
    100 H100      -75.8485   23.5747  -80.1652 H         1 UNK         0.0814 
    101 H101      -76.2669   25.5056  -78.6603 H         1 UNK         0.3105 
    102 H102      -75.8415   29.0420  -78.4906 H         1 UNK         0.0547 
    103 H103      -78.1229   28.5310  -79.1748 H         1 UNK         0.0837 
    104 H104      -77.0136   27.7250  -80.2683 H         1 UNK         0.0837 
    105 H105      -77.8524   26.8009  -79.0301 H         1 UNK         0.0837 
    106 H106      -77.4900   27.4171  -76.6980 H         1 UNK         0.3020 
    107 H107      -76.1655   28.9294  -73.7760 H         1 UNK         0.1245 
    108 H108      -78.8221   29.1790  -73.6895 H         1 UNK         0.0781 
    109 H109      -78.6425   29.6581  -75.3437 H         1 UNK         0.0781 
    110 H110      -79.1551   31.5182  -72.0563 H         1 UNK         0.0836 
    111 H111      -77.5916   32.1464  -71.6091 H         1 UNK         0.0836 
    112 H112      -78.1544   26.8980  -74.3709 H         1 UNK         0.3022 
    113 H113      -75.7763   24.2913  -73.5700 H         1 UNK         0.0747 
    114 H114      -77.3831   23.6674  -71.8380 H         1 UNK         0.0793 
    115 H115      -76.4550   25.0695  -71.3334 H         1 UNK         0.0793 
    116 H116      -78.1137   25.2644  -71.8799 H         1 UNK         0.0793 
    117 H117      -78.5659   24.1408  -74.0971 H         1 UNK         0.3047 
    118 H118      -78.0184   23.2654  -77.5689 H         1 UNK         0.0822 
    119 H119      -77.5961   21.3277  -76.0694 H         1 UNK         0.0807 
    120 H120      -79.2464   21.3134  -76.6698 H         1 UNK         0.0807 
    121 H121      -78.9151   21.8233  -75.0163 H         1 UNK         0.0807 
    122 H122      -80.1514   23.9606  -75.5851 H         1 UNK         0.2946 
    123 H123      -81.3802   26.5156  -77.5936 H         1 UNK         0.1144 
    124 H124      -83.5668   25.3507  -77.8063 H         1 UNK         0.0793 
    125 H125      -82.7940   23.7919  -77.5110 H         1 UNK         0.0793 
    126 H126      -82.4231   24.7024  -78.9684 H         1 UNK         0.0793 
    127 H127      -82.6444   25.1539  -75.4357 H         1 UNK         0.2896 
@<TRIPOS>BOND
     1    1    2 1    
     2    1   67 1    
     3    1   68 1    
     4    1   69 1    
     5    2    3 2    
     6    2    4 am   BACKBONE|DICT|INTERRES
     7    4    5 1    
     8    4   70 1    
     9    5    6 1    
    10    5   65 1    
    11    5   71 1    
    12    6    7 1    
    13    6   72 1    
    14    6   73 1    
    15    7    8 1    
    16    8    9 1    
    17    8   74 1    
    18    8   75 1    
    19    9   10 ar   
    20    9   14 ar   
    21   10   11 ar   
    22   10   76 1    
    23   11   12 ar   
    24   11   48 1    
    25   12   13 ar   
    26   12   77 1    
    27   13   14 ar   
    28   13   15 1    
    29   14   78 1    
    30   15   16 1    
    31   15   79 1    
    32   15   80 1    
    33   16   17 1    
    34   17   18 1    
    35   17   81 1    
    36   17   82 1    
    37   18   19 1    
    38   18   22 1    
    39   18   83 1    
    40   19   20 am   BACKBONE|DICT|INTERRES
    41   19   21 2    
    42   20   84 1    
    43   20   85 1    
    44   22   23 am   BACKBONE|DICT|INTERRES
    45   22   86 1    
    46   23   24 2    
    47   23   25 1    
    48   25   26 1    
    49   25   27 1    
    50   25   87 1    
    51   26   88 1    
    52   26   89 1    
    53   26   90 1    
    54   27   28 am   BACKBONE|DICT|INTERRES
    55   27   91 1    
    56   28   29 2    
    57   28   30 1    
    58   30   31 1    
    59   30   32 1    
    60   30   92 1    
    61   31   93 1    
    62   31   94 1    
    63   31   95 1    
    64   32   33 am   BACKBONE|DICT|INTERRES
    65   32   96 1    
    66   33   34 2    
    67   33   35 1    
    68   35   36 1    
    69   35   37 1    
    70   35   97 1    
    71   36   98 1    
    72   36   99 1    
    73   36  100 1    
    74   37   38 am   BACKBONE|DICT|INTERRES
    75   37  101 1    
    76   38   39 2    
    77   38   40 1    
    78   40   41 1    
    79   40   42 1    
    80   40  102 1    
    81   41  103 1    
    82   41  104 1    
    83   41  105 1    
    84   42   43 am   BACKBONE|DICT|INTERRES
    85   42  106 1    
    86   43   44 2    
    87   43   45 1    
    88   45   46 1    
    89   45   49 1    
    90   45  107 1    
    91   46   47 1    
    92   46  108 1    
    93   46  109 1    
    94   47   48 1    
    95   48  110 1    
    96   48  111 1    
    97   49   50 am   BACKBONE|DICT|INTERRES
    98   49  112 1    
    99   50   51 2    
   100   50   52 1    
   101   52   53 1    
   102   52   54 1    
   103   52  113 1    
   104   53  114 1    
   105   53  115 1    
   106   53  116 1    
   107   54   55 am   BACKBONE|DICT|INTERRES
   108   54  117 1    
   109   55   56 2    
   110   55   57 1    
   111   57   58 1    
   112   57   59 1    
   113   57  118 1    
   114   58  119 1    
   115   58  120 1    
   116   58  121 1    
   117   59   60 am   BACKBONE|DICT|INTERRES
   118   59  122 1    
   119   60   61 2    
   120   60   62 1    
   121   62   63 1    
   122   62   64 1    
   123   62  123 1    
   124   63  124 1    
   125   63  125 1    
   126   63  126 1    
   127   64   65 am   BACKBONE|DICT|INTERRES
   128   64  127 1    
   129   65   66 2    
@<TRIPOS>SUBSTRUCTURE
     1 UNK         1 GROUP             0       ****    0 ROOT    
