@<TRIPOS>MOLECULE
3R135
127   129    1
SMALL
USER_CHARGES


@<TRIPOS>ATOM
      1 CA        -84.2813   30.5737  -75.8342 C.3       0 UNK        -0.1998 
      2 C         -83.3851   29.3916  -75.4980 C.2       0 UNK         0.4909 
      3 O         -83.8297   28.4655  -74.8182 O.2       0 UNK        -0.5240 
      4 N         -82.1339   29.4149  -75.9800 N.am      1 UNK        -0.4739 
      5 CA        -81.0629   28.4199  -75.7918 C.3       1 UNK         0.0864 
      6 C6        -80.6786   28.1731  -74.3069 C.3       11 UNK        -0.0881 
      7 S7        -79.9432   29.6721  -73.5737 S.3       11 UNK        -0.2682 
      8 C8        -79.8606   29.2297  -71.8114 C.3       11 UNK         0.0289 
      9 C9        -78.5750   28.4977  -71.4454 C.ar      11 UNK        -0.0687 
     10 C10       -78.6127   27.1667  -71.0178 C.ar      11 UNK        -0.0823 
     11 C11       -77.4474   26.5280  -70.5791 C.ar      11 UNK        -0.0830 
     12 C12       -76.2344   27.2215  -70.5926 C.ar      11 UNK        -0.1021 
     13 C13       -76.1814   28.5497  -71.0255 C.ar      11 UNK        -0.0753 
     14 C14       -77.3535   29.1804  -71.4550 C.ar      11 UNK        -0.0933 
     15 C15       -74.8684   29.3165  -70.9673 C.3       11 UNK         0.0166 
     16 S16       -73.6992   28.7456  -72.2344 S.3       11 UNK        -0.2615 
     17 C17       -72.2526   29.8028  -71.8780 C.3       11 UNK        -0.0865 
     18 CA        -72.0815   30.9573  -72.8996 C.3       10 UNK         0.0862 
     19 C         -70.8376   31.8142  -72.5356 C.2       10 UNK         0.5551 
     20 N         -71.0347   32.9433  -71.8692 N.am      10 UNK        -0.7319 
     21 O         -69.6991   31.4370  -72.8060 O.2       10 UNK        -0.5018 
     22 N         -72.0543   30.4311  -74.2702 N.am      10 UNK        -0.4509 
     23 C         -71.9081   31.1200  -75.4083 C.2       10 UNK         0.4899 
     24 O         -71.7848   32.3445  -75.4624 O.2       10 UNK        -0.4839 
     25 CA        -71.9643   30.3022  -76.7152 C.3       9 UNK         0.0222 
     26 CB        -71.0393   30.8664  -77.8149 C.3       9 UNK        -0.1966 
     27 N         -71.7635   28.8581  -76.5186 N.am      9 UNK        -0.4218 
     28 C         -70.6338   28.2238  -76.1569 C.2       9 UNK         0.5020 
     29 O         -69.5570   28.7933  -75.9783 O.2       9 UNK        -0.5274 
     30 CA        -70.7061   26.7003  -75.9152 C.3       8 UNK         0.0270 
     31 CB        -70.5463   26.3913  -74.4164 C.3       8 UNK        -0.1976 
     32 N         -71.9465   26.0820  -76.3864 N.am      8 UNK        -0.4313 
     33 C         -72.2978   25.9264  -77.6712 C.2       8 UNK         0.5041 
     34 O         -71.5454   26.1642  -78.6164 O.2       8 UNK        -0.5577 
     35 CA        -73.7440   25.4731  -77.9556 C.3       7 UNK         0.0284 
     36 CB        -73.7652   24.0096  -78.4231 C.3       7 UNK        -0.1958 
     37 N         -74.6591   25.6478  -76.8171 N.am      7 UNK        -0.4454 
     38 C         -74.9845   26.8351  -76.2772 C.2       7 UNK         0.5089 
     39 O         -74.5601   27.9066  -76.7122 O.2       7 UNK        -0.5125 
     40 CA        -75.8736   26.8517  -75.0203 C.3       6 UNK         0.0408 
     41 CB        -77.2520   27.4468  -75.3231 C.3       6 UNK        -0.1791 
     42 N         -76.0330   25.5481  -74.3716 N.am      6 UNK        -0.4762 
     43 C         -75.0581   24.9190  -73.6976 C.2       6 UNK         0.5007 
     44 O         -73.9224   25.3772  -73.5654 O.2       6 UNK        -0.5032 
     45 CA        -75.3657   23.5124  -73.1396 C.3       5 UNK         0.0783 
     46 C46       -75.7562   23.5532  -71.6379 C.3       11 UNK        -0.0857 
     47 S47       -77.5342   23.8619  -71.3383 S.3       11 UNK        -0.2512 
     48 C48       -77.5169   25.1140  -70.0238 C.3       11 UNK         0.0225 
     49 N         -76.3400   22.7613  -73.9402 N.am      5 UNK        -0.4615 
     50 C         -76.2293   22.4606  -75.2387 C.2       4 UNK         0.5053 
     51 O         -75.2356   22.7259  -75.9123 O.2       4 UNK        -0.5105 
     52 CA        -77.4353   21.7833  -75.9140 C.3       4 UNK         0.0263 
     53 CB        -77.1869   20.2728  -76.0534 C.3       4 UNK        -0.1981 
     54 N         -78.7290   22.0005  -75.2509 N.am      4 UNK        -0.4224 
     55 C         -79.3175   23.1900  -75.0594 C.2       3 UNK         0.4895 
     56 O         -78.7827   24.2730  -75.3085 O.2       3 UNK        -0.5091 
     57 CA        -80.7318   23.1613  -74.4558 C.3       3 UNK         0.0250 
     58 CB        -80.6931   23.4645  -72.9507 C.3       3 UNK        -0.1996 
     59 N         -81.5968   24.1383  -75.1134 N.am      3 UNK        -0.4254 
     60 C         -82.1045   24.0041  -76.3463 C.2       2 UNK         0.5004 
     61 O         -81.9792   22.9889  -77.0328 O.2       2 UNK        -0.5226 
     62 CA        -82.8906   25.2023  -76.9093 C.3       2 UNK         0.0269 
     63 CB        -84.4008   25.0046  -76.7013 C.3       2 UNK        -0.1926 
     64 N         -82.4900   26.4842  -76.3215 N.am      2 UNK        -0.4687 
     65 C         -81.3213   27.0987  -76.5434 C.2       1 UNK         0.5165 
     66 O         -80.4687   26.6712  -77.3218 O.2       1 UNK        -0.5079 
     67 H67       -85.1583   30.2346  -76.3848 H         1 UNK         0.0900 
     68 H68       -83.7660   31.3180  -76.4411 H         1 UNK         0.0900 
     69 H69       -84.6197   31.0584  -74.9188 H         1 UNK         0.0900 
     70 H70       -81.8621   30.2054  -76.5482 H         1 UNK         0.2959 
     71 H71       -80.1863   28.8520  -76.2789 H         1 UNK         0.1079 
     72 H72       -81.5482   27.8754  -73.7200 H         1 UNK         0.0837 
     73 H73       -79.9670   27.3523  -74.2122 H         1 UNK         0.0837 
     74 H74       -80.7399   28.6458  -71.5354 H         1 UNK         0.0685 
     75 H75       -79.9152   30.1479  -71.2248 H         1 UNK         0.0685 
     76 H76       -79.5546   26.6359  -70.9907 H         1 UNK         0.1434 
     77 H77       -75.3314   26.7382  -70.2453 H         1 UNK         0.1329 
     78 H78       -77.3244   30.2140  -71.7720 H         1 UNK         0.1335 
     79 H79       -75.0398   30.3865  -71.0964 H         1 UNK         0.0680 
     80 H80       -74.4232   29.1891  -69.9794 H         1 UNK         0.0680 
     81 H81       -72.3326   30.1990  -70.8638 H         1 UNK         0.1032 
     82 H82       -71.3670   29.1638  -71.8777 H         1 UNK         0.1032 
     83 H83       -72.9642   31.5966  -72.8359 H         1 UNK         0.0461 
     84 H84       -70.2384   33.5040  -71.6085 H         1 UNK         0.3453 
     85 H85       -71.9643   33.2554  -71.6343 H         1 UNK         0.3453 
     86 H86       -72.1678   29.4320  -74.3430 H         1 UNK         0.2984 
     87 H87       -72.9888   30.4012  -77.0766 H         1 UNK         0.0554 
     88 H88       -71.0934   30.2692  -78.7250 H         1 UNK         0.0847 
     89 H89       -69.9978   30.8989  -77.4944 H         1 UNK         0.0847 
     90 H90       -71.3250   31.8850  -78.0800 H         1 UNK         0.0847 
     91 H91       -72.6095   28.3047  -76.6254 H         1 UNK         0.3141 
     92 H92       -69.8720   26.2453  -76.4535 H         1 UNK         0.0743 
     93 H93       -69.6155   26.8055  -74.0263 H         1 UNK         0.0784 
     94 H94       -71.3628   26.8123  -73.8273 H         1 UNK         0.0784 
     95 H95       -70.5223   25.3169  -74.2326 H         1 UNK         0.0784 
     96 H96       -72.6261   25.8398  -75.6765 H         1 UNK         0.3213 
     97 H97       -74.1191   26.0944  -78.7717 H         1 UNK         0.0855 
     98 H98       -73.1751   23.8830  -79.3318 H         1 UNK         0.0814 
     99 H99       -74.7785   23.6748  -78.6459 H         1 UNK         0.0814 
    100 H100      -73.3465   23.3406  -77.6705 H         1 UNK         0.0814 
    101 H101      -75.0200   24.8004  -76.3917 H         1 UNK         0.3105 
    102 H102      -75.3867   27.5185  -74.3071 H         1 UNK         0.0547 
    103 H103      -77.7797   27.6416  -74.3917 H         1 UNK         0.0837 
    104 H104      -77.1687   28.3997  -75.8473 H         1 UNK         0.0837 
    105 H105      -77.8613   26.7826  -75.9372 H         1 UNK         0.0837 
    106 H106      -76.9328   25.0905  -74.4761 H         1 UNK         0.3020 
    107 H107      -74.4236   22.9641  -73.2140 H         1 UNK         0.1245 
    108 H108      -75.1478   24.2778  -71.0930 H         1 UNK         0.0781 
    109 H109      -75.5246   22.5875  -71.1861 H         1 UNK         0.0781 
    110 H110      -76.6934   24.9220  -69.3342 H         1 UNK         0.0836 
    111 H111      -78.4283   25.0062  -69.4337 H         1 UNK         0.0836 
    112 H112      -77.2017   22.5324  -73.4664 H         1 UNK         0.3022 
    113 H113      -77.5131   22.2090  -76.9166 H         1 UNK         0.0747 
    114 H114      -77.9753   19.7913  -76.6322 H         1 UNK         0.0793 
    115 H115      -76.2455   20.0774  -76.5694 H         1 UNK         0.0793 
    116 H116      -77.1333   19.7812  -75.0811 H         1 UNK         0.0793 
    117 H117      -79.2377   21.1673  -74.9910 H         1 UNK         0.3047 
    118 H118      -81.1648   22.1687  -74.5989 H         1 UNK         0.0822 
    119 H119      -80.1099   22.7128  -72.4179 H         1 UNK         0.0807 
    120 H120      -81.6934   23.4601  -72.5173 H         1 UNK         0.0807 
    121 H121      -80.2425   24.4369  -72.7457 H         1 UNK         0.0807 
    122 H122      -81.7291   25.0199  -74.6418 H         1 UNK         0.2946 
    123 H123      -82.6924   25.2429  -77.9830 H         1 UNK         0.1144 
    124 H124      -84.7377   24.0681  -77.1482 H         1 UNK         0.0793 
    125 H125      -84.9732   25.8082  -77.1650 H         1 UNK         0.0793 
    126 H126      -84.6617   24.9744  -75.6427 H         1 UNK         0.0793 
    127 H127      -83.1480   26.9476  -75.6984 H         1 UNK         0.2896 
@<TRIPOS>BOND
     1    1    2 1    
     2    1   67 1    
     3    1   68 1    
     4    1   69 1    
     5    2    3 2    
     6    2    4 am   BACKBONE|DICT|INTERRES
     7    4    5 1    
     8    4   70 1    
     9    5    6 1    
    10    5   65 1    
    11    5   71 1    
    12    6    7 1    
    13    6   72 1    
    14    6   73 1    
    15    7    8 1    
    16    8    9 1    
    17    8   74 1    
    18    8   75 1    
    19    9   10 ar   
    20    9   14 ar   
    21   10   11 ar   
    22   10   76 1    
    23   11   12 ar   
    24   11   48 1    
    25   12   13 ar   
    26   12   77 1    
    27   13   14 ar   
    28   13   15 1    
    29   14   78 1    
    30   15   16 1    
    31   15   79 1    
    32   15   80 1    
    33   16   17 1    
    34   17   18 1    
    35   17   81 1    
    36   17   82 1    
    37   18   19 1    
    38   18   22 1    
    39   18   83 1    
    40   19   20 am   BACKBONE|DICT|INTERRES
    41   19   21 2    
    42   20   84 1    
    43   20   85 1    
    44   22   23 am   BACKBONE|DICT|INTERRES
    45   22   86 1    
    46   23   24 2    
    47   23   25 1    
    48   25   26 1    
    49   25   27 1    
    50   25   87 1    
    51   26   88 1    
    52   26   89 1    
    53   26   90 1    
    54   27   28 am   BACKBONE|DICT|INTERRES
    55   27   91 1    
    56   28   29 2    
    57   28   30 1    
    58   30   31 1    
    59   30   32 1    
    60   30   92 1    
    61   31   93 1    
    62   31   94 1    
    63   31   95 1    
    64   32   33 am   BACKBONE|DICT|INTERRES
    65   32   96 1    
    66   33   34 2    
    67   33   35 1    
    68   35   36 1    
    69   35   37 1    
    70   35   97 1    
    71   36   98 1    
    72   36   99 1    
    73   36  100 1    
    74   37   38 am   BACKBONE|DICT|INTERRES
    75   37  101 1    
    76   38   39 2    
    77   38   40 1    
    78   40   41 1    
    79   40   42 1    
    80   40  102 1    
    81   41  103 1    
    82   41  104 1    
    83   41  105 1    
    84   42   43 am   BACKBONE|DICT|INTERRES
    85   42  106 1    
    86   43   44 2    
    87   43   45 1    
    88   45   46 1    
    89   45   49 1    
    90   45  107 1    
    91   46   47 1    
    92   46  108 1    
    93   46  109 1    
    94   47   48 1    
    95   48  110 1    
    96   48  111 1    
    97   49   50 am   BACKBONE|DICT|INTERRES
    98   49  112 1    
    99   50   51 2    
   100   50   52 1    
   101   52   53 1    
   102   52   54 1    
   103   52  113 1    
   104   53  114 1    
   105   53  115 1    
   106   53  116 1    
   107   54   55 am   BACKBONE|DICT|INTERRES
   108   54  117 1    
   109   55   56 2    
   110   55   57 1    
   111   57   58 1    
   112   57   59 1    
   113   57  118 1    
   114   58  119 1    
   115   58  120 1    
   116   58  121 1    
   117   59   60 am   BACKBONE|DICT|INTERRES
   118   59  122 1    
   119   60   61 2    
   120   60   62 1    
   121   62   63 1    
   122   62   64 1    
   123   62  123 1    
   124   63  124 1    
   125   63  125 1    
   126   63  126 1    
   127   64   65 am   BACKBONE|DICT|INTERRES
   128   64  127 1    
   129   65   66 2    
@<TRIPOS>SUBSTRUCTURE
     1 UNK         1 GROUP             0       ****    0 ROOT    
