@<TRIPOS>MOLECULE
3R135
127   129    1
SMALL
USER_CHARGES


@<TRIPOS>ATOM
      1 CA        -77.8917   30.3168  -76.0973 C.3       0 UNK        -0.1998 
      2 C         -78.4086   29.2932  -75.0976 C.2       0 UNK         0.4909 
      3 O         -77.7678   28.2650  -74.8965 O.2       0 UNK        -0.5240 
      4 N         -79.5564   29.5702  -74.4656 N.am      1 UNK        -0.4739 
      5 CA        -80.2270   28.6585  -73.5345 C.3       1 UNK         0.0864 
      6 C6        -81.2441   29.4256  -72.6503 C.3       11 UNK        -0.0881 
      7 S7        -81.8161   28.4648  -71.2051 S.3       11 UNK        -0.2682 
      8 C8        -80.7636   29.1172  -69.8678 C.3       11 UNK         0.0289 
      9 C9        -79.2938   28.8059  -70.1063 C.ar      11 UNK        -0.0687 
     10 C10       -78.8335   27.4886  -70.0196 C.ar      11 UNK        -0.0823 
     11 C11       -77.4965   27.1850  -70.2910 C.ar      11 UNK        -0.0830 
     12 C12       -76.6123   28.2159  -70.6240 C.ar      11 UNK        -0.1021 
     13 C13       -77.0568   29.5390  -70.7006 C.ar      11 UNK        -0.0753 
     14 C14       -78.3990   29.8284  -70.4369 C.ar      11 UNK        -0.0933 
     15 C15       -76.0909   30.6535  -71.0763 C.3       11 UNK         0.0166 
     16 S16       -76.4219   31.2636  -72.7563 S.3       11 UNK        -0.2615 
     17 C17       -74.9696   32.3215  -73.0697 C.3       11 UNK        -0.0865 
     18 CA        -74.0248   31.6983  -74.1299 C.3       10 UNK         0.0862 
     19 C         -72.9515   32.7214  -74.5820 C.2       10 UNK         0.5551 
     20 N         -73.2298   33.4920  -75.6241 N.am      10 UNK        -0.7319 
     21 O         -71.8892   32.8498  -73.9753 O.2       10 UNK        -0.5018 
     22 N         -73.3895   30.4720  -73.6291 N.am      10 UNK        -0.4509 
     23 C         -73.1576   29.3760  -74.3579 C.2       10 UNK         0.4899 
     24 O         -73.5216   29.2352  -75.5292 O.2       10 UNK        -0.4839 
     25 CA        -72.3802   28.2578  -73.6430 C.3       9 UNK         0.0222 
     26 CB        -73.1679   27.7134  -72.4376 C.3       9 UNK        -0.1966 
     27 N         -72.1424   27.1591  -74.5726 N.am      9 UNK        -0.4218 
     28 C         -70.9602   26.6289  -74.9007 C.2       9 UNK         0.5020 
     29 O         -69.8876   26.9548  -74.3894 O.2       9 UNK        -0.5274 
     30 CA        -70.9797   25.5579  -76.0059 C.3       8 UNK         0.0270 
     31 CB        -71.3776   24.1864  -75.4357 C.3       8 UNK        -0.1976 
     32 N         -71.8826   25.9146  -77.1036 N.am      8 UNK        -0.4313 
     33 C         -71.6594   26.8951  -77.9883 C.2       8 UNK         0.5041 
     34 O         -70.6127   27.5435  -78.0309 O.2       8 UNK        -0.5577 
     35 CA        -72.7795   27.2349  -78.9907 C.3       7 UNK         0.0284 
     36 CB        -72.6364   26.4168  -80.2897 C.3       7 UNK        -0.1958 
     37 N         -74.1406   27.1579  -78.4380 N.am      7 UNK        -0.4454 
     38 C         -74.8331   26.0771  -78.0560 C.2       7 UNK         0.5089 
     39 O         -74.4198   24.9193  -78.1528 O.2       7 UNK        -0.5125 
     40 CA        -76.2145   26.3528  -77.4368 C.3       6 UNK         0.0408 
     41 CB        -77.3262   26.1145  -78.4702 C.3       6 UNK        -0.1791 
     42 N         -76.5020   25.5554  -76.2421 N.am      6 UNK        -0.4762 
     43 C         -75.7118   25.4056  -75.1680 C.2       6 UNK         0.5007 
     44 O         -74.5774   25.8725  -75.0727 O.2       6 UNK        -0.5032 
     45 CA        -76.2912   24.6067  -73.9876 C.3       5 UNK         0.0783 
     46 C46       -77.0929   25.5521  -73.0618 C.3       11 UNK        -0.0857 
     47 S47       -77.7341   24.7265  -71.5675 S.3       11 UNK        -0.2512 
     48 C48       -77.0106   25.7420  -70.2373 C.3       11 UNK         0.0225 
     49 N         -77.1015   23.4866  -74.4720 N.am      5 UNK        -0.4615 
     50 C         -76.6225   22.2757  -74.7827 C.2       4 UNK         0.5053 
     51 O         -75.4385   21.9605  -74.6618 O.2       4 UNK        -0.5105 
     52 CA        -77.6263   21.2227  -75.2919 C.3       4 UNK         0.0263 
     53 CB        -78.0349   20.2818  -74.1466 C.3       4 UNK        -0.1981 
     54 N         -78.8336   21.8106  -75.8772 N.am      4 UNK        -0.4224 
     55 C         -78.9033   22.3467  -77.1041 C.2       3 UNK         0.4895 
     56 O         -77.9810   22.3176  -77.9184 O.2       3 UNK        -0.5091 
     57 CA        -80.2179   23.0610  -77.4802 C.3       3 UNK         0.0250 
     58 CB        -81.1554   22.1009  -78.2300 C.3       3 UNK        -0.1996 
     59 N         -80.9360   23.6533  -76.3413 N.am      3 UNK        -0.4254 
     60 C         -80.4273   24.5884  -75.5270 C.2       2 UNK         0.5004 
     61 O         -79.2803   25.0227  -75.6385 O.2       2 UNK        -0.5226 
     62 CA        -81.3141   25.0487  -74.3568 C.3       2 UNK         0.0269 
     63 CB        -81.3719   23.9610  -73.2704 C.3       2 UNK        -0.1926 
     64 N         -80.8166   26.2840  -73.7461 N.am      2 UNK        -0.4687 
     65 C         -80.8886   27.4972  -74.3085 C.2       1 UNK         0.5165 
     66 O         -81.4745   27.7247  -75.3715 O.2       1 UNK        -0.5079 
     67 H67       -76.8534   30.5617  -75.8746 H         1 UNK         0.0900 
     68 H68       -78.4704   31.2399  -76.0719 H         1 UNK         0.0900 
     69 H69       -77.9368   29.9093  -77.1068 H         1 UNK         0.0900 
     70 H70       -80.0578   30.4164  -74.6926 H         1 UNK         0.2959 
     71 H71       -79.4532   28.2397  -72.8865 H         1 UNK         0.1079 
     72 H72       -80.7979   30.3535  -72.2887 H         1 UNK         0.0837 
     73 H73       -82.1152   29.7272  -73.2352 H         1 UNK         0.0837 
     74 H74       -80.9269   30.1916  -69.7695 H         1 UNK         0.0685 
     75 H75       -81.0761   28.6717  -68.9223 H         1 UNK         0.0685 
     76 H76       -79.5240   26.6941  -69.7703 H         1 UNK         0.1434 
     77 H77       -75.5776   27.9866  -70.8322 H         1 UNK         0.1329 
     78 H78       -78.7474   30.8496  -70.5105 H         1 UNK         0.1335 
     79 H79       -76.1828   31.4765  -70.3660 H         1 UNK         0.0680 
     80 H80       -75.0601   30.3015  -71.0164 H         1 UNK         0.0680 
     81 H81       -74.4371   32.5236  -72.1384 H         1 UNK         0.1032 
     82 H82       -75.3456   33.2866  -73.4150 H         1 UNK         0.1032 
     83 H83       -74.6308   31.4525  -75.0046 H         1 UNK         0.0461 
     84 H84       -72.5506   34.1739  -75.9244 H         1 UNK         0.3453 
     85 H85       -74.1015   33.4016  -76.1226 H         1 UNK         0.3453 
     86 H86       -73.0034   30.5297  -72.6989 H         1 UNK         0.2984 
     87 H87       -71.4328   28.6754  -73.2965 H         1 UNK         0.0554 
     88 H88       -72.6512   26.8729  -71.9740 H         1 UNK         0.0847 
     89 H89       -74.1607   27.3719  -72.7325 H         1 UNK         0.0847 
     90 H90       -73.2948   28.4746  -71.6678 H         1 UNK         0.0847 
     91 H91       -72.9803   26.8090  -75.0351 H         1 UNK         0.3141 
     92 H92       -69.9683   25.4769  -76.4100 H         1 UNK         0.0743 
     93 H93       -72.3933   24.1902  -75.0380 H         1 UNK         0.0784 
     94 H94       -71.3207   23.4091  -76.1980 H         1 UNK         0.0784 
     95 H95       -70.7104   23.8937  -74.6238 H         1 UNK         0.0784 
     96 H96       -72.7682   25.4203  -77.1652 H         1 UNK         0.3213 
     97 H97       -72.6398   28.2844  -79.2556 H         1 UNK         0.0855 
     98 H98       -71.6632   26.5914  -80.7504 H         1 UNK         0.0814 
     99 H99       -73.3954   26.6954  -81.0206 H         1 UNK         0.0814 
    100 H100      -72.7183   25.3443  -80.1116 H         1 UNK         0.0814 
    101 H101      -74.5637   28.0581  -78.2548 H         1 UNK         0.3105 
    102 H102      -76.2526   27.3989  -77.1267 H         1 UNK         0.0547 
    103 H103      -77.1659   26.7146  -79.3667 H         1 UNK         0.0837 
    104 H104      -77.3670   25.0687  -78.7780 H         1 UNK         0.0837 
    105 H105      -78.3037   26.3841  -78.0690 H         1 UNK         0.0837 
    106 H106      -77.4501   25.1976  -76.1679 H         1 UNK         0.3020 
    107 H107      -75.4453   24.2149  -73.4177 H         1 UNK         0.1245 
    108 H108      -77.9428   25.9818  -73.5917 H         1 UNK         0.0781 
    109 H109      -76.4713   26.3997  -72.7710 H         1 UNK         0.0781 
    110 H110      -75.9224   25.6919  -70.3006 H         1 UNK         0.0836 
    111 H111      -77.2811   25.3080  -69.2737 H         1 UNK         0.0836 
    112 H112      -78.0705   23.7046  -74.6664 H         1 UNK         0.3022 
    113 H113      -77.1207   20.6293  -76.0570 H         1 UNK         0.0747 
    114 H114      -78.6959   19.4898  -74.4993 H         1 UNK         0.0793 
    115 H115      -77.1603   19.7996  -73.7074 H         1 UNK         0.0793 
    116 H116      -78.5470   20.8176  -73.3460 H         1 UNK         0.0793 
    117 H117      -79.6498   21.8619  -75.2858 H         1 UNK         0.3047 
    118 H118      -79.9541   23.8773  -78.1562 H         1 UNK         0.0822 
    119 H119      -82.0426   22.6170  -78.5972 H         1 UNK         0.0807 
    120 H120      -81.4832   21.2770  -77.5947 H         1 UNK         0.0807 
    121 H121      -80.6559   21.6650  -79.0965 H         1 UNK         0.0807 
    122 H122      -81.8795   23.3278  -76.1842 H         1 UNK         0.2946 
    123 H123      -82.3213   25.2312  -74.7384 H         1 UNK         0.1144 
    124 H124      -81.7997   23.0352  -73.6568 H         1 UNK         0.0793 
    125 H125      -81.9936   24.2731  -72.4308 H         1 UNK         0.0793 
    126 H126      -80.3805   23.7250  -72.8811 H         1 UNK         0.0793 
    127 H127      -80.3130   26.1822  -72.8770 H         1 UNK         0.2896 
@<TRIPOS>BOND
     1    1    2 1    
     2    1   67 1    
     3    1   68 1    
     4    1   69 1    
     5    2    3 2    
     6    2    4 am   BACKBONE|DICT|INTERRES
     7    4    5 1    
     8    4   70 1    
     9    5    6 1    
    10    5   65 1    
    11    5   71 1    
    12    6    7 1    
    13    6   72 1    
    14    6   73 1    
    15    7    8 1    
    16    8    9 1    
    17    8   74 1    
    18    8   75 1    
    19    9   10 ar   
    20    9   14 ar   
    21   10   11 ar   
    22   10   76 1    
    23   11   12 ar   
    24   11   48 1    
    25   12   13 ar   
    26   12   77 1    
    27   13   14 ar   
    28   13   15 1    
    29   14   78 1    
    30   15   16 1    
    31   15   79 1    
    32   15   80 1    
    33   16   17 1    
    34   17   18 1    
    35   17   81 1    
    36   17   82 1    
    37   18   19 1    
    38   18   22 1    
    39   18   83 1    
    40   19   20 am   BACKBONE|DICT|INTERRES
    41   19   21 2    
    42   20   84 1    
    43   20   85 1    
    44   22   23 am   BACKBONE|DICT|INTERRES
    45   22   86 1    
    46   23   24 2    
    47   23   25 1    
    48   25   26 1    
    49   25   27 1    
    50   25   87 1    
    51   26   88 1    
    52   26   89 1    
    53   26   90 1    
    54   27   28 am   BACKBONE|DICT|INTERRES
    55   27   91 1    
    56   28   29 2    
    57   28   30 1    
    58   30   31 1    
    59   30   32 1    
    60   30   92 1    
    61   31   93 1    
    62   31   94 1    
    63   31   95 1    
    64   32   33 am   BACKBONE|DICT|INTERRES
    65   32   96 1    
    66   33   34 2    
    67   33   35 1    
    68   35   36 1    
    69   35   37 1    
    70   35   97 1    
    71   36   98 1    
    72   36   99 1    
    73   36  100 1    
    74   37   38 am   BACKBONE|DICT|INTERRES
    75   37  101 1    
    76   38   39 2    
    77   38   40 1    
    78   40   41 1    
    79   40   42 1    
    80   40  102 1    
    81   41  103 1    
    82   41  104 1    
    83   41  105 1    
    84   42   43 am   BACKBONE|DICT|INTERRES
    85   42  106 1    
    86   43   44 2    
    87   43   45 1    
    88   45   46 1    
    89   45   49 1    
    90   45  107 1    
    91   46   47 1    
    92   46  108 1    
    93   46  109 1    
    94   47   48 1    
    95   48  110 1    
    96   48  111 1    
    97   49   50 am   BACKBONE|DICT|INTERRES
    98   49  112 1    
    99   50   51 2    
   100   50   52 1    
   101   52   53 1    
   102   52   54 1    
   103   52  113 1    
   104   53  114 1    
   105   53  115 1    
   106   53  116 1    
   107   54   55 am   BACKBONE|DICT|INTERRES
   108   54  117 1    
   109   55   56 2    
   110   55   57 1    
   111   57   58 1    
   112   57   59 1    
   113   57  118 1    
   114   58  119 1    
   115   58  120 1    
   116   58  121 1    
   117   59   60 am   BACKBONE|DICT|INTERRES
   118   59  122 1    
   119   60   61 2    
   120   60   62 1    
   121   62   63 1    
   122   62   64 1    
   123   62  123 1    
   124   63  124 1    
   125   63  125 1    
   126   63  126 1    
   127   64   65 am   BACKBONE|DICT|INTERRES
   128   64  127 1    
   129   65   66 2    
@<TRIPOS>SUBSTRUCTURE
     1 UNK         1 GROUP             0       ****    0 ROOT    
