@<TRIPOS>MOLECULE
3R135
127   129    1
SMALL
USER_CHARGES


@<TRIPOS>ATOM
      1 CA        -80.3781   31.2599  -75.7841 C.3       0 UNK        -0.1998 
      2 C         -80.2362   29.8653  -75.1959 C.2       0 UNK         0.4909 
      3 O         -79.5383   29.0314  -75.7721 O.2       0 UNK        -0.5240 
      4 N         -80.9046   29.6021  -74.0628 N.am      1 UNK        -0.4739 
      5 CA        -80.8356   28.3522  -73.2884 C.3       1 UNK         0.0864 
      6 C6        -81.7210   28.4100  -72.0152 C.3       11 UNK        -0.0881 
      7 S7        -81.2508   29.7569  -70.8722 S.3       11 UNK        -0.2682 
      8 C8        -80.2805   28.8698  -69.6074 C.3       11 UNK         0.0289 
      9 C9        -78.9738   28.3513  -70.1859 C.ar      11 UNK        -0.0687 
     10 C10       -78.8979   27.0508  -70.6907 C.ar      11 UNK        -0.0823 
     11 C11       -77.7435   26.6079  -71.3400 C.ar      11 UNK        -0.0830 
     12 C12       -76.6378   27.4589  -71.4329 C.ar      11 UNK        -0.1021 
     13 C13       -76.6842   28.7430  -70.8834 C.ar      11 UNK        -0.0753 
     14 C14       -77.8569   29.1878  -70.2662 C.ar      11 UNK        -0.0933 
     15 C15       -75.4758   29.6573  -70.9828 C.3       11 UNK         0.0166 
     16 S16       -75.5848   30.7059  -72.4649 S.3       11 UNK        -0.2615 
     17 C17       -73.9091   30.5367  -73.1685 C.3       11 UNK        -0.0865 
     18 CA        -73.9078   30.7221  -74.7082 C.3       10 UNK         0.0862 
     19 C         -72.4628   30.8563  -75.2736 C.2       10 UNK         0.5551 
     20 N         -72.0843   30.1616  -76.3405 N.am      10 UNK        -0.7319 
     21 O         -71.6652   31.6248  -74.7419 O.2       10 UNK        -0.5018 
     22 N         -74.6920   29.6704  -75.3733 N.am      10 UNK        -0.4509 
     23 C         -75.5703   29.8697  -76.3635 C.2       10 UNK         0.4899 
     24 O         -75.9042   30.9871  -76.7623 O.2       10 UNK        -0.4839 
     25 CA        -76.1661   28.6143  -77.0402 C.3       9 UNK         0.0222 
     26 CB        -76.5750   28.8933  -78.5045 C.3       9 UNK        -0.1966 
     27 N         -75.2968   27.4318  -76.9674 N.am      9 UNK        -0.4218 
     28 C         -74.0582   27.3244  -77.4679 C.2       9 UNK         0.5020 
     29 O         -73.4732   28.2179  -78.0848 O.2       9 UNK        -0.5274 
     30 CA        -73.3214   26.0123  -77.1720 C.3       8 UNK         0.0270 
     31 CB        -72.7248   25.4065  -78.4536 C.3       8 UNK        -0.1976 
     32 N         -72.2593   26.1761  -76.1774 N.am      8 UNK        -0.4313 
     33 C         -72.3753   26.7234  -74.9590 C.2       8 UNK         0.5041 
     34 O         -73.4002   27.2472  -74.5180 O.2       8 UNK        -0.5577 
     35 CA        -71.1528   26.5590  -74.0431 C.3       7 UNK         0.0284 
     36 CB        -71.1698   27.5352  -72.8519 C.3       7 UNK        -0.1958 
     37 N         -71.1619   25.1859  -73.5442 N.am      7 UNK        -0.4454 
     38 C         -70.7047   24.1255  -74.2243 C.2       7 UNK         0.5089 
     39 O         -70.0106   24.2073  -75.2385 O.2       7 UNK        -0.5125 
     40 CA        -71.1771   22.7482  -73.7297 C.3       6 UNK         0.0408 
     41 CB        -70.2734   22.2355  -72.5973 C.3       6 UNK        -0.1791 
     42 N         -72.5753   22.7733  -73.2796 N.am      6 UNK        -0.4762 
     43 C         -73.6361   22.9687  -74.0816 C.2       6 UNK         0.5007 
     44 O         -73.5500   23.0550  -75.3083 O.2       6 UNK        -0.5032 
     45 CA        -75.0069   23.0455  -73.3757 C.3       5 UNK         0.0783 
     46 C46       -75.1009   24.2535  -72.3988 C.3       11 UNK        -0.0857 
     47 S47       -76.5271   24.0982  -71.2682 S.3       11 UNK        -0.2512 
     48 C48       -77.7348   25.2423  -72.0071 C.3       11 UNK         0.0225 
     49 N         -76.1421   22.9495  -74.3078 N.am      5 UNK        -0.4615 
     50 C         -76.6205   23.8782  -75.1504 C.2       4 UNK         0.5053 
     51 O         -76.1261   24.9968  -75.3214 O.2       4 UNK        -0.5105 
     52 CA        -77.9165   23.4923  -75.8904 C.3       4 UNK         0.0263 
     53 CB        -78.9216   22.7576  -74.9786 C.3       4 UNK        -0.1981 
     54 N         -78.5882   24.6768  -76.4230 N.am      4 UNK        -0.4224 
     55 C         -78.4958   25.1232  -77.6815 C.2       3 UNK         0.4895 
     56 O         -77.7996   24.5878  -78.5462 O.2       3 UNK        -0.5091 
     57 CA        -79.3206   26.3795  -78.0349 C.3       3 UNK         0.0250 
     58 CB        -79.7085   26.4452  -79.5272 C.3       3 UNK        -0.1996 
     59 N         -80.4907   26.5932  -77.1753 N.am      3 UNK        -0.4254 
     60 C         -81.5564   25.7898  -77.0228 C.2       2 UNK         0.5004 
     61 O         -81.7202   24.7458  -77.6558 O.2       2 UNK        -0.5226 
     62 CA        -82.6224   26.2203  -75.9910 C.3       2 UNK         0.0269 
     63 CB        -83.2499   25.0119  -75.2625 C.3       2 UNK        -0.1926 
     64 N         -82.1558   27.2255  -75.0230 N.am      2 UNK        -0.4687 
     65 C         -81.1748   27.0928  -74.1147 C.2       1 UNK         0.5165 
     66 O         -80.5216   26.0612  -73.9500 O.2       1 UNK        -0.5079 
     67 H67       -81.0030   31.9030  -75.1647 H         1 UNK         0.0900 
     68 H68       -79.3973   31.7260  -75.8767 H         1 UNK         0.0900 
     69 H69       -80.8238   31.2044  -76.7769 H         1 UNK         0.0900 
     70 H70       -81.4542   30.3351  -73.6365 H         1 UNK         0.2959 
     71 H71       -79.7930   28.2446  -72.9849 H         1 UNK         0.1079 
     72 H72       -81.6955   27.4617  -71.4760 H         1 UNK         0.0837 
     73 H73       -82.7665   28.5592  -72.2917 H         1 UNK         0.0837 
     74 H74       -80.0732   29.5489  -68.7791 H         1 UNK         0.0685 
     75 H75       -80.8729   28.0529  -69.1921 H         1 UNK         0.0685 
     76 H76       -79.7610   26.4021  -70.6316 H         1 UNK         0.1434 
     77 H77       -75.7441   27.1321  -71.9451 H         1 UNK         0.1329 
     78 H78       -77.9100   30.1952  -69.8762 H         1 UNK         0.1335 
     79 H79       -75.4123   30.2953  -70.1000 H         1 UNK         0.0680 
     80 H80       -74.5631   29.0601  -70.9901 H         1 UNK         0.0680 
     81 H81       -73.4943   29.5596  -72.9177 H         1 UNK         0.1032 
     82 H82       -73.2724   31.2773  -72.6810 H         1 UNK         0.1032 
     83 H83       -74.3706   31.6900  -74.9085 H         1 UNK         0.0461 
     84 H84       -72.7268   29.5439  -76.8258 H         1 UNK         0.3453 
     85 H85       -71.1479   30.2797  -76.6918 H         1 UNK         0.3453 
     86 H86       -74.4319   28.7184  -75.1214 H         1 UNK         0.2984 
     87 H87       -77.0618   28.3576  -76.4752 H         1 UNK         0.0554 
     88 H88       -77.4223   29.5790  -78.5464 H         1 UNK         0.0847 
     89 H89       -76.8625   27.9828  -79.0288 H         1 UNK         0.0847 
     90 H90       -75.7606   29.3493  -79.0688 H         1 UNK         0.0847 
     91 H91       -75.6405   26.6589  -76.4004 H         1 UNK         0.3141 
     92 H92       -74.0334   25.2919  -76.7694 H         1 UNK         0.0743 
     93 H93       -71.9509   26.0454  -78.8813 H         1 UNK         0.0784 
     94 H94       -72.2858   24.4272  -78.2610 H         1 UNK         0.0784 
     95 H95       -73.4947   25.2714  -79.2145 H         1 UNK         0.0784 
     96 H96       -71.3792   25.7289  -76.3976 H         1 UNK         0.3213 
     97 H97       -70.2473   26.7453  -74.6252 H         1 UNK         0.0855 
     98 H98       -72.0521   27.4015  -72.2246 H         1 UNK         0.0814 
     99 H99       -71.1691   28.5687  -73.2007 H         1 UNK         0.0814 
    100 H100      -70.2894   27.4058  -72.2224 H         1 UNK         0.0814 
    101 H101      -71.7504   25.0092  -72.7439 H         1 UNK         0.3105 
    102 H102      -71.1032   22.0500  -74.5663 H         1 UNK         0.0547 
    103 H103      -69.2323   22.1928  -72.9206 H         1 UNK         0.0837 
    104 H104      -70.3143   22.8803  -71.7186 H         1 UNK         0.0837 
    105 H105      -70.5553   21.2286  -72.2892 H         1 UNK         0.0837 
    106 H106      -72.7275   22.6632  -72.2866 H         1 UNK         0.3020 
    107 H107      -75.0623   22.1357  -72.7750 H         1 UNK         0.1245 
    108 H108      -75.1352   25.1975  -72.9432 H         1 UNK         0.0781 
    109 H109      -74.2159   24.3168  -71.7642 H         1 UNK         0.0781 
    110 H110      -78.7209   24.7797  -71.9442 H         1 UNK         0.0836 
    111 H111      -77.5451   25.3838  -73.0683 H         1 UNK         0.0836 
    112 H112      -76.6258   22.0640  -74.2800 H         1 UNK         0.3022 
    113 H113      -77.6405   22.8225  -76.7074 H         1 UNK         0.0747 
    114 H114      -79.8633   22.5777  -75.4985 H         1 UNK         0.0793 
    115 H115      -78.5484   21.7831  -74.6632 H         1 UNK         0.0793 
    116 H116      -79.1481   23.3343  -74.0806 H         1 UNK         0.0793 
    117 H117      -79.1498   25.2038  -75.7665 H         1 UNK         0.3047 
    118 H118      -78.6699   27.2254  -77.8278 H         1 UNK         0.0822 
    119 H119      -80.2624   27.3563  -79.7531 H         1 UNK         0.0807 
    120 H120      -80.3236   25.5948  -79.8228 H         1 UNK         0.0807 
    121 H121      -78.8226   26.4415  -80.1634 H         1 UNK         0.0807 
    122 H122      -80.4316   27.4220  -76.5903 H         1 UNK         0.2946 
    123 H123      -83.4127   26.7003  -76.5707 H         1 UNK         0.1144 
    124 H124      -83.7423   24.3411  -75.9677 H         1 UNK         0.0793 
    125 H125      -84.0036   25.3295  -74.5422 H         1 UNK         0.0793 
    126 H126      -82.5008   24.4256  -74.7293 H         1 UNK         0.0793 
    127 H127      -82.5997   28.1316  -75.0891 H         1 UNK         0.2896 
@<TRIPOS>BOND
     1    1    2 1    
     2    1   67 1    
     3    1   68 1    
     4    1   69 1    
     5    2    3 2    
     6    2    4 am   BACKBONE|DICT|INTERRES
     7    4    5 1    
     8    4   70 1    
     9    5    6 1    
    10    5   65 1    
    11    5   71 1    
    12    6    7 1    
    13    6   72 1    
    14    6   73 1    
    15    7    8 1    
    16    8    9 1    
    17    8   74 1    
    18    8   75 1    
    19    9   10 ar   
    20    9   14 ar   
    21   10   11 ar   
    22   10   76 1    
    23   11   12 ar   
    24   11   48 1    
    25   12   13 ar   
    26   12   77 1    
    27   13   14 ar   
    28   13   15 1    
    29   14   78 1    
    30   15   16 1    
    31   15   79 1    
    32   15   80 1    
    33   16   17 1    
    34   17   18 1    
    35   17   81 1    
    36   17   82 1    
    37   18   19 1    
    38   18   22 1    
    39   18   83 1    
    40   19   20 am   BACKBONE|DICT|INTERRES
    41   19   21 2    
    42   20   84 1    
    43   20   85 1    
    44   22   23 am   BACKBONE|DICT|INTERRES
    45   22   86 1    
    46   23   24 2    
    47   23   25 1    
    48   25   26 1    
    49   25   27 1    
    50   25   87 1    
    51   26   88 1    
    52   26   89 1    
    53   26   90 1    
    54   27   28 am   BACKBONE|DICT|INTERRES
    55   27   91 1    
    56   28   29 2    
    57   28   30 1    
    58   30   31 1    
    59   30   32 1    
    60   30   92 1    
    61   31   93 1    
    62   31   94 1    
    63   31   95 1    
    64   32   33 am   BACKBONE|DICT|INTERRES
    65   32   96 1    
    66   33   34 2    
    67   33   35 1    
    68   35   36 1    
    69   35   37 1    
    70   35   97 1    
    71   36   98 1    
    72   36   99 1    
    73   36  100 1    
    74   37   38 am   BACKBONE|DICT|INTERRES
    75   37  101 1    
    76   38   39 2    
    77   38   40 1    
    78   40   41 1    
    79   40   42 1    
    80   40  102 1    
    81   41  103 1    
    82   41  104 1    
    83   41  105 1    
    84   42   43 am   BACKBONE|DICT|INTERRES
    85   42  106 1    
    86   43   44 2    
    87   43   45 1    
    88   45   46 1    
    89   45   49 1    
    90   45  107 1    
    91   46   47 1    
    92   46  108 1    
    93   46  109 1    
    94   47   48 1    
    95   48  110 1    
    96   48  111 1    
    97   49   50 am   BACKBONE|DICT|INTERRES
    98   49  112 1    
    99   50   51 2    
   100   50   52 1    
   101   52   53 1    
   102   52   54 1    
   103   52  113 1    
   104   53  114 1    
   105   53  115 1    
   106   53  116 1    
   107   54   55 am   BACKBONE|DICT|INTERRES
   108   54  117 1    
   109   55   56 2    
   110   55   57 1    
   111   57   58 1    
   112   57   59 1    
   113   57  118 1    
   114   58  119 1    
   115   58  120 1    
   116   58  121 1    
   117   59   60 am   BACKBONE|DICT|INTERRES
   118   59  122 1    
   119   60   61 2    
   120   60   62 1    
   121   62   63 1    
   122   62   64 1    
   123   62  123 1    
   124   63  124 1    
   125   63  125 1    
   126   63  126 1    
   127   64   65 am   BACKBONE|DICT|INTERRES
   128   64  127 1    
   129   65   66 2    
@<TRIPOS>SUBSTRUCTURE
     1 UNK         1 GROUP             0       ****    0 ROOT    
