@<TRIPOS>MOLECULE
3R135
127   129    1
SMALL
USER_CHARGES


@<TRIPOS>ATOM
      1 CA        -84.2303   23.2850  -69.4565 C.3       0 UNK        -0.1998 
      2 C         -83.6694   24.2805  -70.4612 C.2       0 UNK         0.4909 
      3 O         -84.4172   25.1043  -70.9897 O.2       0 UNK        -0.5240 
      4 N         -82.3574   24.2177  -70.7223 N.am      1 UNK        -0.4739 
      5 CA        -81.6662   25.0470  -71.7134 C.3       1 UNK         0.0864 
      6 C6        -80.1361   25.0410  -71.4666 C.3       11 UNK        -0.0881 
      7 S7        -79.2645   26.3495  -72.3921 S.3       11 UNK        -0.2682 
      8 C8        -79.1644   27.6625  -71.1344 C.3       11 UNK         0.0289 
      9 C9        -78.5926   28.9471  -71.7166 C.ar      11 UNK        -0.0687 
     10 C10       -79.2537   29.5860  -72.7697 C.ar      11 UNK        -0.0823 
     11 C11       -78.7303   30.7506  -73.3364 C.ar      11 UNK        -0.0830 
     12 C12       -77.5652   31.3077  -72.8079 C.ar      11 UNK        -0.1021 
     13 C13       -76.8995   30.6862  -71.7490 C.ar      11 UNK        -0.0753 
     14 C14       -77.4117   29.5012  -71.2093 C.ar      11 UNK        -0.0933 
     15 C15       -75.6218   31.3049  -71.2088 C.3       11 UNK         0.0166 
     16 S16       -74.2144   30.9566  -72.3061 S.3       11 UNK        -0.2615 
     17 C17       -73.7499   29.2801  -71.7615 C.3       11 UNK        -0.0865 
     18 CA        -72.3075   28.9277  -72.2124 C.3       10 UNK         0.0862 
     19 C         -71.7069   27.7311  -71.4151 C.2       10 UNK         0.5551 
     20 N         -70.9652   26.8171  -72.0281 N.am      10 UNK        -0.7319 
     21 O         -71.8980   27.6356  -70.2052 O.2       10 UNK        -0.5018 
     22 N         -72.2438   28.7526  -73.6718 N.am      10 UNK        -0.4509 
     23 C         -71.2571   29.1765  -74.4684 C.2       10 UNK         0.4899 
     24 O         -70.3057   29.8595  -74.0849 O.2       10 UNK        -0.4839 
     25 CA        -71.3412   28.7110  -75.9384 C.3       9 UNK         0.0222 
     26 CB        -70.0790   29.0577  -76.7555 C.3       9 UNK        -0.1966 
     27 N         -71.6541   27.2790  -76.0559 N.am      9 UNK        -0.4218 
     28 C         -70.9891   26.2567  -75.4920 C.2       9 UNK         0.5020 
     29 O         -69.9552   26.3922  -74.8369 O.2       9 UNK        -0.5274 
     30 CA        -71.5884   24.8475  -75.6215 C.3       8 UNK         0.0270 
     31 CB        -72.1082   24.3678  -74.2551 C.3       8 UNK        -0.1976 
     32 N         -72.6839   24.7834  -76.5925 N.am      8 UNK        -0.4313 
     33 C         -72.6166   24.1524  -77.7713 C.2       8 UNK         0.5041 
     34 O         -71.6157   23.5691  -78.1899 O.2       8 UNK        -0.5577 
     35 CA        -73.8902   24.1677  -78.6294 C.3       7 UNK         0.0284 
     36 CB        -74.8207   23.0117  -78.2256 C.3       7 UNK        -0.1958 
     37 N         -74.6182   25.4386  -78.5559 N.am      7 UNK        -0.4454 
     38 C         -74.1978   26.5713  -79.1393 C.2       7 UNK         0.5089 
     39 O         -73.1234   26.6710  -79.7316 O.2       7 UNK        -0.5125 
     40 CA        -75.1148   27.7993  -79.0683 C.3       6 UNK         0.0408 
     41 CB        -76.1400   27.7670  -80.2135 C.3       6 UNK        -0.1791 
     42 N         -75.8232   27.9010  -77.7914 N.am      6 UNK        -0.4762 
     43 C         -75.8051   28.9805  -76.9937 C.2       6 UNK         0.5007 
     44 O         -75.1308   29.9879  -77.2116 O.2       6 UNK        -0.5032 
     45 CA        -76.7020   28.9225  -75.7367 C.3       5 UNK         0.0783 
     46 C46       -78.1548   29.3454  -76.0989 C.3       11 UNK        -0.0857 
     47 S47       -78.3895   31.1559  -76.0565 S.3       11 UNK        -0.2512 
     48 C48       -79.3950   31.3805  -74.5507 C.3       11 UNK         0.0225 
     49 N         -76.6883   27.6086  -75.0850 N.am      5 UNK        -0.4615 
     50 C         -75.6105   26.9044  -74.7142 C.2       4 UNK         0.5053 
     51 O         -74.4536   27.3202  -74.7711 O.2       4 UNK        -0.5105 
     52 CA        -75.8483   25.4537  -74.2604 C.3       4 UNK         0.0263 
     53 CB        -75.7127   25.3431  -72.7331 C.3       4 UNK        -0.1981 
     54 N         -77.1159   24.8519  -74.7041 N.am      4 UNK        -0.4224 
     55 C         -77.5054   24.7089  -75.9822 C.2       3 UNK         0.4895 
     56 O         -76.9021   25.1932  -76.9423 O.2       3 UNK        -0.5091 
     57 CA        -78.7900   23.9156  -76.2293 C.3       3 UNK         0.0250 
     58 CB        -78.7195   22.4952  -75.6360 C.3       3 UNK        -0.1996 
     59 N         -79.9478   24.6380  -75.7047 N.am      3 UNK        -0.4254 
     60 C         -81.1837   24.5668  -76.2190 C.2       2 UNK         0.5004 
     61 O         -81.4723   23.8841  -77.2040 O.2       2 UNK        -0.5226 
     62 CA        -82.2785   25.4032  -75.5213 C.3       2 UNK         0.0269 
     63 CB        -83.7045   24.8850  -75.8098 C.3       2 UNK        -0.1926 
     64 N         -82.0635   25.5627  -74.0755 N.am      2 UNK        -0.4687 
     65 C         -82.0145   24.5931  -73.1481 C.2       1 UNK         0.5165 
     66 O         -82.1810   23.3940  -73.3869 O.2       1 UNK        -0.5079 
     67 H67       -83.4575   22.6275  -69.0587 H         1 UNK         0.0900 
     68 H68       -84.9925   22.6656  -69.9283 H         1 UNK         0.0900 
     69 H69       -84.6889   23.8131  -68.6209 H         1 UNK         0.0900 
     70 H70       -81.7997   23.4981  -70.2847 H         1 UNK         0.2959 
     71 H71       -82.0283   26.0697  -71.5826 H         1 UNK         0.1079 
     72 H72       -79.9266   25.1747  -70.4038 H         1 UNK         0.0837 
     73 H73       -79.7027   24.0747  -71.7324 H         1 UNK         0.0837 
     74 H74       -80.1603   27.8644  -70.7374 H         1 UNK         0.0685 
     75 H75       -78.5573   27.3106  -70.2988 H         1 UNK         0.0685 
     76 H76       -80.1598   29.1523  -73.1699 H         1 UNK         0.1434 
     77 H77       -77.1562   32.2090  -73.2444 H         1 UNK         0.1329 
     78 H78       -76.8924   29.0136  -70.3957 H         1 UNK         0.1335 
     79 H79       -75.7486   32.3862  -71.1358 H         1 UNK         0.0680 
     80 H80       -75.4121   30.9561  -70.1966 H         1 UNK         0.0680 
     81 H81       -74.4706   28.5577  -72.1486 H         1 UNK         0.1032 
     82 H82       -73.8367   29.2479  -70.6741 H         1 UNK         0.1032 
     83 H83       -71.6732   29.7722  -71.9367 H         1 UNK         0.0461 
     84 H84       -70.5790   26.0619  -71.4851 H         1 UNK         0.3453 
     85 H85       -70.7331   26.8984  -73.0105 H         1 UNK         0.3453 
     86 H86       -72.9921   28.1966  -74.0812 H         1 UNK         0.2984 
     87 H87       -72.1822   29.2470  -76.3815 H         1 UNK         0.0554 
     88 H88       -70.1824   28.7469  -77.7951 H         1 UNK         0.0847 
     89 H89       -69.1888   28.5770  -76.3485 H         1 UNK         0.0847 
     90 H90       -69.8968   30.1330  -76.7559 H         1 UNK         0.0847 
     91 H91       -72.5104   27.0669  -76.5447 H         1 UNK         0.3141 
     92 H92       -70.7757   24.1827  -75.9215 H         1 UNK         0.0743 
     93 H93       -72.8175   25.0725  -73.8216 H         1 UNK         0.0784 
     94 H94       -72.5965   23.3960  -74.3298 H         1 UNK         0.0784 
     95 H95       -71.2876   24.2609  -73.5446 H         1 UNK         0.0784 
     96 H96       -73.5534   25.2280  -76.3385 H         1 UNK         0.3213 
     97 H97       -73.5909   24.0101  -79.6682 H         1 UNK         0.0855 
     98 H98       -75.1247   23.0799  -77.1806 H         1 UNK         0.0814 
     99 H99       -74.3229   22.0498  -78.3553 H         1 UNK         0.0814 
    100 H100      -75.7230   22.9942  -78.8371 H         1 UNK         0.0814 
    101 H101      -75.5168   25.4156  -78.0776 H         1 UNK         0.3105 
    102 H102      -74.4768   28.6727  -79.2184 H         1 UNK         0.0547 
    103 H103      -75.6434   27.6893  -81.1817 H         1 UNK         0.0837 
    104 H104      -76.8194   26.9183  -80.1252 H         1 UNK         0.0837 
    105 H105      -76.7410   28.6762  -80.2309 H         1 UNK         0.0837 
    106 H106      -76.3751   27.0992  -77.5048 H         1 UNK         0.3020 
    107 H107      -76.2900   29.6238  -75.0068 H         1 UNK         0.1245 
    108 H108      -78.8711   28.8903  -75.4152 H         1 UNK         0.0781 
    109 H109      -78.4499   28.9786  -77.0845 H         1 UNK         0.0781 
    110 H110      -80.3871   30.9577  -74.7161 H         1 UNK         0.0836 
    111 H111      -79.5414   32.4470  -74.3739 H         1 UNK         0.0836 
    112 H112      -77.5863   27.1670  -74.9646 H         1 UNK         0.3022 
    113 H113      -75.0564   24.8513  -74.7072 H         1 UNK         0.0747 
    114 H114      -75.8285   24.3139  -72.3933 H         1 UNK         0.0793 
    115 H115      -74.7293   25.6813  -72.4035 H         1 UNK         0.0793 
    116 H116      -76.4468   25.9566  -72.2125 H         1 UNK         0.0793 
    117 H117      -77.6844   24.4401  -73.9783 H         1 UNK         0.3047 
    118 H118      -78.8886   23.8228  -77.3135 H         1 UNK         0.0822 
    119 H119      -79.5691   21.8939  -75.9605 H         1 UNK         0.0807 
    120 H120      -78.7218   22.5038  -74.5456 H         1 UNK         0.0807 
    121 H121      -77.8161   21.9774  -75.9616 H         1 UNK         0.0807 
    122 H122      -79.7917   25.2387  -74.9073 H         1 UNK         0.2946 
    123 H123      -82.2029   26.4021  -75.9543 H         1 UNK         0.1144 
    124 H124      -84.4575   25.4991  -75.3158 H         1 UNK         0.0793 
    125 H125      -83.8380   23.8561  -75.4746 H         1 UNK         0.0793 
    126 H126      -83.9214   24.9080  -76.8785 H         1 UNK         0.0793 
    127 H127      -81.8912   26.5110  -73.7703 H         1 UNK         0.2896 
@<TRIPOS>BOND
     1    1    2 1    
     2    1   67 1    
     3    1   68 1    
     4    1   69 1    
     5    2    3 2    
     6    2    4 am   BACKBONE|DICT|INTERRES
     7    4    5 1    
     8    4   70 1    
     9    5    6 1    
    10    5   65 1    
    11    5   71 1    
    12    6    7 1    
    13    6   72 1    
    14    6   73 1    
    15    7    8 1    
    16    8    9 1    
    17    8   74 1    
    18    8   75 1    
    19    9   10 ar   
    20    9   14 ar   
    21   10   11 ar   
    22   10   76 1    
    23   11   12 ar   
    24   11   48 1    
    25   12   13 ar   
    26   12   77 1    
    27   13   14 ar   
    28   13   15 1    
    29   14   78 1    
    30   15   16 1    
    31   15   79 1    
    32   15   80 1    
    33   16   17 1    
    34   17   18 1    
    35   17   81 1    
    36   17   82 1    
    37   18   19 1    
    38   18   22 1    
    39   18   83 1    
    40   19   20 am   BACKBONE|DICT|INTERRES
    41   19   21 2    
    42   20   84 1    
    43   20   85 1    
    44   22   23 am   BACKBONE|DICT|INTERRES
    45   22   86 1    
    46   23   24 2    
    47   23   25 1    
    48   25   26 1    
    49   25   27 1    
    50   25   87 1    
    51   26   88 1    
    52   26   89 1    
    53   26   90 1    
    54   27   28 am   BACKBONE|DICT|INTERRES
    55   27   91 1    
    56   28   29 2    
    57   28   30 1    
    58   30   31 1    
    59   30   32 1    
    60   30   92 1    
    61   31   93 1    
    62   31   94 1    
    63   31   95 1    
    64   32   33 am   BACKBONE|DICT|INTERRES
    65   32   96 1    
    66   33   34 2    
    67   33   35 1    
    68   35   36 1    
    69   35   37 1    
    70   35   97 1    
    71   36   98 1    
    72   36   99 1    
    73   36  100 1    
    74   37   38 am   BACKBONE|DICT|INTERRES
    75   37  101 1    
    76   38   39 2    
    77   38   40 1    
    78   40   41 1    
    79   40   42 1    
    80   40  102 1    
    81   41  103 1    
    82   41  104 1    
    83   41  105 1    
    84   42   43 am   BACKBONE|DICT|INTERRES
    85   42  106 1    
    86   43   44 2    
    87   43   45 1    
    88   45   46 1    
    89   45   49 1    
    90   45  107 1    
    91   46   47 1    
    92   46  108 1    
    93   46  109 1    
    94   47   48 1    
    95   48  110 1    
    96   48  111 1    
    97   49   50 am   BACKBONE|DICT|INTERRES
    98   49  112 1    
    99   50   51 2    
   100   50   52 1    
   101   52   53 1    
   102   52   54 1    
   103   52  113 1    
   104   53  114 1    
   105   53  115 1    
   106   53  116 1    
   107   54   55 am   BACKBONE|DICT|INTERRES
   108   54  117 1    
   109   55   56 2    
   110   55   57 1    
   111   57   58 1    
   112   57   59 1    
   113   57  118 1    
   114   58  119 1    
   115   58  120 1    
   116   58  121 1    
   117   59   60 am   BACKBONE|DICT|INTERRES
   118   59  122 1    
   119   60   61 2    
   120   60   62 1    
   121   62   63 1    
   122   62   64 1    
   123   62  123 1    
   124   63  124 1    
   125   63  125 1    
   126   63  126 1    
   127   64   65 am   BACKBONE|DICT|INTERRES
   128   64  127 1    
   129   65   66 2    
@<TRIPOS>SUBSTRUCTURE
     1 UNK         1 GROUP             0       ****    0 ROOT    
