@<TRIPOS>MOLECULE
3R135
127   129    1
SMALL
USER_CHARGES


@<TRIPOS>ATOM
      1 CA        -83.4049   29.8002  -75.7008 C.3       0 UNK        -0.1998 
      2 C         -82.2276   29.4852  -74.7911 C.2       0 UNK         0.4909 
      3 O         -81.2556   30.2411  -74.7592 O.2       0 UNK        -0.5240 
      4 N         -82.2940   28.3661  -74.0575 N.am      1 UNK        -0.4739 
      5 CA        -81.2597   27.8912  -73.1295 C.3       1 UNK         0.0864 
      6 C6        -81.8932   27.0126  -72.0171 C.3       11 UNK        -0.0881 
      7 S7        -80.9161   26.6804  -70.5017 S.3       11 UNK        -0.2682 
      8 C8        -79.8840   28.1571  -70.1923 C.3       11 UNK         0.0289 
      9 C9        -78.5200   28.0724  -70.8680 C.ar      11 UNK        -0.0687 
     10 C10       -77.6615   27.0064  -70.5781 C.ar      11 UNK        -0.0823 
     11 C11       -76.4088   26.9101  -71.1903 C.ar      11 UNK        -0.0830 
     12 C12       -76.0116   27.8938  -72.0981 C.ar      11 UNK        -0.1021 
     13 C13       -76.8487   28.9770  -72.3788 C.ar      11 UNK        -0.0753 
     14 C14       -78.0987   29.0664  -71.7578 C.ar      11 UNK        -0.0933 
     15 C15       -76.4036   30.0362  -73.3706 C.3       11 UNK         0.0166 
     16 S16       -75.5837   31.4289  -72.5392 S.3       11 UNK        -0.2615 
     17 C17       -74.7615   32.2224  -73.9685 C.3       11 UNK        -0.0865 
     18 CA        -73.2109   32.2364  -73.8705 C.3       10 UNK         0.0862 
     19 C         -72.6886   33.4074  -72.9855 C.2       10 UNK         0.5551 
     20 N         -71.9339   33.1570  -71.9220 N.am      10 UNK        -0.7319 
     21 O         -72.9594   34.5686  -73.2824 O.2       10 UNK        -0.5018 
     22 N         -72.6731   30.9128  -73.5137 N.am      10 UNK        -0.4509 
     23 C         -71.4684   30.4469  -73.8596 C.2       10 UNK         0.4899 
     24 O         -70.6996   31.0325  -74.6230 O.2       10 UNK        -0.4839 
     25 CA        -71.0161   29.1154  -73.2326 C.3       9 UNK         0.0222 
     26 CB        -71.7757   28.7222  -71.9426 C.3       9 UNK        -0.1966 
     27 N         -71.0197   28.0286  -74.2162 N.am      9 UNK        -0.4218 
     28 C         -72.0829   27.4873  -74.8273 C.2       9 UNK         0.5020 
     29 O         -73.2528   27.8103  -74.6037 O.2       9 UNK        -0.5274 
     30 CA        -71.7672   26.3566  -75.8245 C.3       8 UNK         0.0270 
     31 CB        -71.3439   25.0811  -75.0762 C.3       8 UNK        -0.1976 
     32 N         -72.9185   26.0560  -76.6796 N.am      8 UNK        -0.4313 
     33 C         -73.3075   26.8207  -77.7104 C.2       8 UNK         0.5041 
     34 O         -72.6491   27.7781  -78.1233 O.2       8 UNK        -0.5577 
     35 CA        -74.6625   26.5022  -78.3762 C.3       7 UNK         0.0284 
     36 CB        -74.6802   26.8189  -79.8872 C.3       7 UNK        -0.1958 
     37 N         -75.1758   25.1553  -78.1052 N.am      7 UNK        -0.4454 
     38 C         -74.6717   23.9837  -78.5171 C.2       7 UNK         0.5089 
     39 O         -73.6785   23.8766  -79.2385 O.2       7 UNK        -0.5125 
     40 CA        -75.4029   22.7193  -78.0144 C.3       6 UNK         0.0408 
     41 CB        -74.5543   21.4404  -78.1732 C.3       6 UNK        -0.1791 
     42 N         -75.8979   22.8332  -76.6345 N.am      6 UNK        -0.4762 
     43 C         -75.1785   23.1271  -75.5376 C.2       6 UNK         0.5007 
     44 O         -73.9715   23.3621  -75.5730 O.2       6 UNK        -0.5032 
     45 CA        -75.9144   23.1788  -74.1821 C.3       5 UNK         0.0783 
     46 C46       -75.4410   24.3659  -73.3040 C.3       11 UNK        -0.0857 
     47 S47       -76.0447   24.1931  -71.5928 S.3       11 UNK        -0.2512 
     48 C48       -75.4813   25.7539  -70.8497 C.3       11 UNK         0.0225 
     49 N         -77.3661   23.2098  -74.3751 N.am      5 UNK        -0.4615 
     50 C         -78.2086   22.2004  -74.1272 C.2       4 UNK         0.5053 
     51 O         -77.8559   21.0988  -73.7059 O.2       4 UNK        -0.5105 
     52 CA        -79.7002   22.4540  -74.4089 C.3       4 UNK         0.0263 
     53 CB        -80.4487   22.7575  -73.1003 C.3       4 UNK        -0.1981 
     54 N         -79.9173   23.5477  -75.3618 N.am      4 UNK        -0.4224 
     55 C         -79.7132   23.4419  -76.6842 C.2       3 UNK         0.4895 
     56 O         -79.3593   22.3997  -77.2358 O.2       3 UNK        -0.5091 
     57 CA        -79.8948   24.7099  -77.5394 C.3       3 UNK         0.0250 
     58 CB        -81.3295   24.7882  -78.0848 C.3       3 UNK        -0.1996 
     59 N         -79.5777   25.9548  -76.8357 N.am      3 UNK        -0.4254 
     60 C         -78.3757   26.2710  -76.3348 C.2       2 UNK         0.5004 
     61 O         -77.3840   25.5490  -76.4267 O.2       2 UNK        -0.5226 
     62 CA        -78.2675   27.5964  -75.5666 C.3       2 UNK         0.0269 
     63 CB        -77.9474   28.7396  -76.5440 C.3       2 UNK        -0.1926 
     64 N         -79.4543   27.9605  -74.7832 N.am      2 UNK        -0.4687 
     65 C         -80.1164   27.1946  -73.9025 C.2       1 UNK         0.5165 
     66 O         -79.8861   25.9971  -73.7324 O.2       1 UNK        -0.5079 
     67 H67       -83.8373   30.7639  -75.4330 H         1 UNK         0.0900 
     68 H68       -83.0742   29.8513  -76.7379 H         1 UNK         0.0900 
     69 H69       -84.1883   29.0457  -75.6308 H         1 UNK         0.0900 
     70 H70       -83.1042   27.7688  -74.1478 H         1 UNK         0.2959 
     71 H71       -80.8293   28.7744  -72.6602 H         1 UNK         0.1079 
     72 H72       -82.2130   26.0527  -72.4274 H         1 UNK         0.0837 
     73 H73       -82.8103   27.4919  -71.6706 H         1 UNK         0.0837 
     74 H74       -79.7188   28.2308  -69.1166 H         1 UNK         0.0685 
     75 H75       -80.4238   29.0635  -70.4683 H         1 UNK         0.0685 
     76 H76       -77.9746   26.2418  -69.8801 H         1 UNK         0.1434 
     77 H77       -75.0490   27.8201  -72.5850 H         1 UNK         0.1329 
     78 H78       -78.7420   29.9078  -71.9760 H         1 UNK         0.1335 
     79 H79       -77.2636   30.4153  -73.9230 H         1 UNK         0.0680 
     80 H80       -75.7288   29.5900  -74.1039 H         1 UNK         0.0680 
     81 H81       -75.1602   33.2321  -74.0854 H         1 UNK         0.1032 
     82 H82       -75.0486   31.7042  -74.8844 H         1 UNK         0.1032 
     83 H83       -72.8474   32.4703  -74.8732 H         1 UNK         0.0461 
     84 H84       -71.5975   33.9249  -71.3627 H         1 UNK         0.3453 
     85 H85       -71.7064   32.2096  -71.6696 H         1 UNK         0.3453 
     86 H86       -73.2543   30.3609  -72.8996 H         1 UNK         0.2984 
     87 H87       -69.9718   29.2591  -72.9508 H         1 UNK         0.0554 
     88 H88       -71.7091   29.5110  -71.1923 H         1 UNK         0.0847 
     89 H89       -71.3468   27.8243  -71.4975 H         1 UNK         0.0847 
     90 H90       -72.8326   28.5248  -72.1170 H         1 UNK         0.0847 
     91 H91       -70.1039   27.7004  -74.4910 H         1 UNK         0.3141 
     92 H92       -70.9385   26.6761  -76.4602 H         1 UNK         0.0743 
     93 H93       -70.4063   25.2302  -74.5397 H         1 UNK         0.0784 
     94 H94       -71.1929   24.2475  -75.7627 H         1 UNK         0.0784 
     95 H95       -72.0907   24.7786  -74.3415 H         1 UNK         0.0784 
     96 H96       -73.5009   25.2772  -76.3939 H         1 UNK         0.3213 
     97 H97       -75.3735   27.1766  -77.9008 H         1 UNK         0.0855 
     98 H98       -73.9319   26.2425  -80.4316 H         1 UNK         0.0814 
     99 H99       -74.4689   27.8734  -80.0684 H         1 UNK         0.0814 
    100 H100      -75.6549   26.6065  -80.3263 H         1 UNK         0.0814 
    101 H101      -75.9883   25.1284  -77.4877 H         1 UNK         0.3105 
    102 H102      -76.2865   22.6107  -78.6450 H         1 UNK         0.0547 
    103 H103      -75.0988   20.5581  -77.8376 H         1 UNK         0.0837 
    104 H104      -73.6259   21.4991  -77.6039 H         1 UNK         0.0837 
    105 H105      -74.2854   21.2749  -79.2171 H         1 UNK         0.0837 
    106 H106      -76.8914   22.6875  -76.5135 H         1 UNK         0.3020 
    107 H107      -75.6282   22.2558  -73.6726 H         1 UNK         0.1245 
    108 H108      -75.7820   25.3163  -73.7197 H         1 UNK         0.0781 
    109 H109      -74.3518   24.4190  -73.2585 H         1 UNK         0.0781 
    110 H110      -74.4578   25.9643  -71.1646 H         1 UNK         0.0836 
    111 H111      -75.4461   25.6331  -69.7660 H         1 UNK         0.0836 
    112 H112      -77.7379   24.0753  -74.7448 H         1 UNK         0.3022 
    113 H113      -80.1175   21.5384  -74.8335 H         1 UNK         0.0747 
    114 H114      -81.5076   22.9435  -73.2796 H         1 UNK         0.0793 
    115 H115      -80.3789   21.9162  -72.4096 H         1 UNK         0.0793 
    116 H116      -80.0359   23.6285  -72.5896 H         1 UNK         0.0793 
    117 H117      -80.1325   24.4563  -74.9603 H         1 UNK         0.3047 
    118 H118      -79.2099   24.6294  -78.3863 H         1 UNK         0.0822 
    119 H119      -81.4492   25.6277  -78.7699 H         1 UNK         0.0807 
    120 H120      -82.0611   24.9001  -77.2835 H         1 UNK         0.0807 
    121 H121      -81.5869   23.8832  -78.6372 H         1 UNK         0.0807 
    122 H122      -80.3345   26.6082  -76.6972 H         1 UNK         0.2946 
    123 H123      -77.4387   27.4910  -74.8636 H         1 UNK         0.1144 
    124 H124      -77.8335   29.6930  -76.0309 H         1 UNK         0.0793 
    125 H125      -78.7330   28.8616  -77.2909 H         1 UNK         0.0793 
    126 H126      -77.0167   28.5525  -77.0782 H         1 UNK         0.0793 
    127 H127      -79.7852   28.9157  -74.8838 H         1 UNK         0.2896 
@<TRIPOS>BOND
     1    1    2 1    
     2    1   67 1    
     3    1   68 1    
     4    1   69 1    
     5    2    3 2    
     6    2    4 am   BACKBONE|DICT|INTERRES
     7    4    5 1    
     8    4   70 1    
     9    5    6 1    
    10    5   65 1    
    11    5   71 1    
    12    6    7 1    
    13    6   72 1    
    14    6   73 1    
    15    7    8 1    
    16    8    9 1    
    17    8   74 1    
    18    8   75 1    
    19    9   10 ar   
    20    9   14 ar   
    21   10   11 ar   
    22   10   76 1    
    23   11   12 ar   
    24   11   48 1    
    25   12   13 ar   
    26   12   77 1    
    27   13   14 ar   
    28   13   15 1    
    29   14   78 1    
    30   15   16 1    
    31   15   79 1    
    32   15   80 1    
    33   16   17 1    
    34   17   18 1    
    35   17   81 1    
    36   17   82 1    
    37   18   19 1    
    38   18   22 1    
    39   18   83 1    
    40   19   20 am   BACKBONE|DICT|INTERRES
    41   19   21 2    
    42   20   84 1    
    43   20   85 1    
    44   22   23 am   BACKBONE|DICT|INTERRES
    45   22   86 1    
    46   23   24 2    
    47   23   25 1    
    48   25   26 1    
    49   25   27 1    
    50   25   87 1    
    51   26   88 1    
    52   26   89 1    
    53   26   90 1    
    54   27   28 am   BACKBONE|DICT|INTERRES
    55   27   91 1    
    56   28   29 2    
    57   28   30 1    
    58   30   31 1    
    59   30   32 1    
    60   30   92 1    
    61   31   93 1    
    62   31   94 1    
    63   31   95 1    
    64   32   33 am   BACKBONE|DICT|INTERRES
    65   32   96 1    
    66   33   34 2    
    67   33   35 1    
    68   35   36 1    
    69   35   37 1    
    70   35   97 1    
    71   36   98 1    
    72   36   99 1    
    73   36  100 1    
    74   37   38 am   BACKBONE|DICT|INTERRES
    75   37  101 1    
    76   38   39 2    
    77   38   40 1    
    78   40   41 1    
    79   40   42 1    
    80   40  102 1    
    81   41  103 1    
    82   41  104 1    
    83   41  105 1    
    84   42   43 am   BACKBONE|DICT|INTERRES
    85   42  106 1    
    86   43   44 2    
    87   43   45 1    
    88   45   46 1    
    89   45   49 1    
    90   45  107 1    
    91   46   47 1    
    92   46  108 1    
    93   46  109 1    
    94   47   48 1    
    95   48  110 1    
    96   48  111 1    
    97   49   50 am   BACKBONE|DICT|INTERRES
    98   49  112 1    
    99   50   51 2    
   100   50   52 1    
   101   52   53 1    
   102   52   54 1    
   103   52  113 1    
   104   53  114 1    
   105   53  115 1    
   106   53  116 1    
   107   54   55 am   BACKBONE|DICT|INTERRES
   108   54  117 1    
   109   55   56 2    
   110   55   57 1    
   111   57   58 1    
   112   57   59 1    
   113   57  118 1    
   114   58  119 1    
   115   58  120 1    
   116   58  121 1    
   117   59   60 am   BACKBONE|DICT|INTERRES
   118   59  122 1    
   119   60   61 2    
   120   60   62 1    
   121   62   63 1    
   122   62   64 1    
   123   62  123 1    
   124   63  124 1    
   125   63  125 1    
   126   63  126 1    
   127   64   65 am   BACKBONE|DICT|INTERRES
   128   64  127 1    
   129   65   66 2    
@<TRIPOS>SUBSTRUCTURE
     1 UNK         1 GROUP             0       ****    0 ROOT    
