@<TRIPOS>MOLECULE
3R135
127   129    1
SMALL
USER_CHARGES


@<TRIPOS>ATOM
      1 CA        -84.1662   26.0080  -72.9626 C.3       0 UNK        -0.1998 
      2 C         -83.6206   27.4234  -73.1367 C.2       0 UNK         0.4909 
      3 O         -84.4109   28.3402  -73.3524 O.2       0 UNK        -0.5240 
      4 N         -82.3041   27.6767  -73.0599 N.am      1 UNK        -0.4739 
      5 CA        -81.1795   26.7505  -72.8297 C.3       1 UNK         0.0864 
      6 C6        -81.2186   25.9945  -71.4706 C.3       11 UNK        -0.0881 
      7 S7        -81.4347   27.1091  -70.0418 S.3       11 UNK        -0.2682 
      8 C8        -79.7526   27.1515  -69.3261 C.3       11 UNK         0.0289 
      9 C9        -78.7093   27.9330  -70.1292 C.ar      11 UNK        -0.0687 
     10 C10       -79.0552   28.9933  -70.9761 C.ar      11 UNK        -0.0823 
     11 C11       -78.0752   29.7074  -71.6718 C.ar      11 UNK        -0.0830 
     12 C12       -76.7287   29.3862  -71.4729 C.ar      11 UNK        -0.1021 
     13 C13       -76.3570   28.3340  -70.6258 C.ar      11 UNK        -0.0753 
     14 C14       -77.3578   27.6103  -69.9691 C.ar      11 UNK        -0.0933 
     15 C15       -74.8938   27.9351  -70.4204 C.3       11 UNK         0.0166 
     16 S16       -73.7394   29.3473  -70.3226 S.3       11 UNK        -0.2615 
     17 C17       -72.6151   29.0147  -71.7282 C.3       11 UNK        -0.0865 
     18 CA        -73.2592   29.3322  -73.1065 C.3       10 UNK         0.0862 
     19 C         -73.4000   30.8486  -73.4425 C.2       10 UNK         0.5551 
     20 N         -73.8582   31.1837  -74.6423 N.am      10 UNK        -0.7319 
     21 O         -73.0938   31.7228  -72.6357 O.2       10 UNK        -0.5018 
     22 N         -72.6782   28.5510  -74.2080 N.am      10 UNK        -0.4509 
     23 C         -71.4490   28.7127  -74.7132 C.2       10 UNK         0.4899 
     24 O         -70.5901   29.4370  -74.2068 O.2       10 UNK        -0.4839 
     25 CA        -71.1476   27.9696  -76.0291 C.3       9 UNK         0.0222 
     26 CB        -69.6440   27.9411  -76.3801 C.3       9 UNK        -0.1966 
     27 N         -71.7317   26.6251  -76.1018 N.am      9 UNK        -0.4218 
     28 C         -71.4338   25.5658  -75.3317 C.2       9 UNK         0.5020 
     29 O         -70.6317   25.6080  -74.3973 O.2       9 UNK        -0.5274 
     30 CA        -72.1231   24.2209  -75.6463 C.3       8 UNK         0.0270 
     31 CB        -72.8604   23.6735  -74.4148 C.3       8 UNK        -0.1976 
     32 N         -73.0471   24.2751  -76.7850 N.am      8 UNK        -0.4313 
     33 C         -72.6646   24.2175  -78.0669 C.2       8 UNK         0.5041 
     34 O         -71.4932   24.0884  -78.4254 O.2       8 UNK        -0.5577 
     35 CA        -73.7630   24.3504  -79.1358 C.3       7 UNK         0.0284 
     36 CB        -74.4163   22.9856  -79.4105 C.3       7 UNK        -0.1958 
     37 N         -74.8069   25.3408  -78.8434 N.am      7 UNK        -0.4454 
     38 C         -74.6142   26.6410  -78.5789 C.2       7 UNK         0.5089 
     39 O         -73.5057   27.1464  -78.4044 O.2       7 UNK        -0.5125 
     40 CA        -75.8672   27.5346  -78.5406 C.3       6 UNK         0.0408 
     41 CB        -76.9464   27.1047  -79.5539 C.3       6 UNK        -0.1791 
     42 N         -76.4588   27.5886  -77.2068 N.am      6 UNK        -0.4762 
     43 C         -76.0102   28.3375  -76.1903 C.2       6 UNK         0.5007 
     44 O         -75.0129   29.0578  -76.2486 O.2       6 UNK        -0.5032 
     45 CA        -76.8028   28.2480  -74.8739 C.3       5 UNK         0.0783 
     46 C46       -78.0729   29.1367  -74.8657 C.3       11 UNK        -0.0857 
     47 S47       -77.6882   30.8114  -74.2480 S.3       11 UNK        -0.2512 
     48 C48       -78.4892   30.8460  -72.6036 C.3       11 UNK         0.0225 
     49 N         -77.0884   26.8570  -74.5342 N.am      5 UNK        -0.4615 
     50 C         -76.2046   26.0512  -73.9318 C.2       4 UNK         0.5053 
     51 O         -75.0739   26.4044  -73.6029 O.2       4 UNK        -0.5105 
     52 CA        -76.6525   24.6051  -73.6675 C.3       4 UNK         0.0263 
     53 CB        -77.3985   24.5195  -72.3277 C.3       4 UNK        -0.1981 
     54 N         -77.4853   24.0819  -74.7538 N.am      4 UNK        -0.4224 
     55 C         -77.0052   23.8186  -75.9799 C.2       3 UNK         0.4895 
     56 O         -75.8140   23.9127  -76.2750 O.2       3 UNK        -0.5091 
     57 CA        -78.0040   23.4181  -77.0808 C.3       3 UNK         0.0250 
     58 CB        -78.0561   21.8893  -77.2239 C.3       3 UNK        -0.1996 
     59 N         -79.3616   23.9355  -76.8890 N.am      3 UNK        -0.4254 
     60 C         -79.6960   25.2306  -76.8035 C.2       2 UNK         0.5004 
     61 O         -78.8818   26.1527  -76.8768 O.2       2 UNK        -0.5226 
     62 CA        -81.1719   25.5680  -76.5230 C.3       2 UNK         0.0269 
     63 CB        -82.1297   24.3559  -76.5920 C.3       2 UNK        -0.1926 
     64 N         -81.3195   26.2582  -75.2358 N.am      2 UNK        -0.4687 
     65 C         -80.9069   25.8230  -74.0338 C.2       1 UNK         0.5165 
     66 O         -80.3294   24.7481  -73.8613 O.2       1 UNK        -0.5079 
     67 H67       -84.2873   25.7807  -71.9041 H         1 UNK         0.0900 
     68 H68       -85.1465   25.9250  -73.4316 H         1 UNK         0.0900 
     69 H69       -83.5316   25.2496  -73.4155 H         1 UNK         0.0900 
     70 H70       -82.0237   28.6408  -73.1723 H         1 UNK         0.2959 
     71 H71       -80.2950   27.3851  -72.7984 H         1 UNK         0.1079 
     72 H72       -82.0188   25.2554  -71.4523 H         1 UNK         0.0837 
     73 H73       -80.3026   25.4219  -71.3230 H         1 UNK         0.0837 
     74 H74       -79.8194   27.6035  -68.3359 H         1 UNK         0.0685 
     75 H75       -79.4161   26.1252  -69.1701 H         1 UNK         0.0685 
     76 H76       -80.0930   29.2717  -71.0928 H         1 UNK         0.1434 
     77 H77       -75.9737   29.9641  -71.9838 H         1 UNK         0.1329 
     78 H78       -77.0814   26.7962  -69.3127 H         1 UNK         0.1335 
     79 H79       -74.5984   27.2602  -71.2224 H         1 UNK         0.0680 
     80 H80       -74.7887   27.3644  -69.4965 H         1 UNK         0.0680 
     81 H81       -71.6939   29.5844  -71.5940 H         1 UNK         0.1032 
     82 H82       -72.3207   27.9649  -71.6831 H         1 UNK         0.1032 
     83 H83       -74.2780   28.9641  -73.0525 H         1 UNK         0.0461 
     84 H84       -73.9553   32.1570  -74.8816 H         1 UNK         0.3453 
     85 H85       -74.1474   30.4665  -75.3016 H         1 UNK         0.3453 
     86 H86       -73.3207   27.9383  -74.6913 H         1 UNK         0.2984 
     87 H87       -71.6473   28.5461  -76.8090 H         1 UNK         0.0554 
     88 H88       -69.2455   28.9519  -76.4759 H         1 UNK         0.0847 
     89 H89       -69.4677   27.4344  -77.3289 H         1 UNK         0.0847 
     90 H90       -69.0576   27.4336  -75.6137 H         1 UNK         0.0847 
     91 H91       -72.4086   26.5013  -76.8495 H         1 UNK         0.3141 
     92 H92       -71.3287   23.5117  -75.8885 H         1 UNK         0.0743 
     93 H93       -72.1594   23.4438  -73.6115 H         1 UNK         0.0784 
     94 H94       -73.5665   24.4010  -74.0237 H         1 UNK         0.0784 
     95 H95       -73.4056   22.7576  -74.6438 H         1 UNK         0.0784 
     96 H96       -74.0452   24.3192  -76.5779 H         1 UNK         0.3213 
     97 H97       -73.2717   24.6772  -80.0547 H         1 UNK         0.0855 
     98 H98       -74.9600   22.6150  -78.5409 H         1 UNK         0.0814 
     99 H99       -73.6638   22.2377  -79.6651 H         1 UNK         0.0814 
    100 H100      -75.1133   23.0373  -80.2470 H         1 UNK         0.0814 
    101 H101      -75.7579   25.0182  -78.9296 H         1 UNK         0.3105 
    102 H102      -75.5477   28.5414  -78.8183 H         1 UNK         0.0547 
    103 H103      -77.7392   27.8505  -79.6157 H         1 UNK         0.0837 
    104 H104      -76.5273   27.0007  -80.5558 H         1 UNK         0.0837 
    105 H105      -77.4146   26.1565  -79.2889 H         1 UNK         0.0837 
    106 H106      -77.2962   27.0266  -77.0598 H         1 UNK         0.3020 
    107 H107      -76.1425   28.6258  -74.0964 H         1 UNK         0.1245 
    108 H108      -78.8404   28.7049  -74.2235 H         1 UNK         0.0781 
    109 H109      -78.5287   29.2085  -75.8554 H         1 UNK         0.0781 
    110 H110      -79.5699   30.8464  -72.7536 H         1 UNK         0.0836 
    111 H111      -78.2493   31.7940  -72.1205 H         1 UNK         0.0836 
    112 H112      -77.9564   26.4699  -74.8782 H         1 UNK         0.3022 
    113 H113      -75.7651   23.9752  -73.5939 H         1 UNK         0.0747 
    114 H114      -77.7929   23.5193  -72.1484 H         1 UNK         0.0793 
    115 H115      -76.7309   24.7616  -71.4996 H         1 UNK         0.0793 
    116 H116      -78.2267   25.2250  -72.2845 H         1 UNK         0.0793 
    117 H117      -78.4827   24.0130  -74.5799 H         1 UNK         0.3047 
    118 H118      -77.6295   23.8336  -78.0180 H         1 UNK         0.0822 
    119 H119      -77.0595   21.4777  -77.3909 H         1 UNK         0.0807 
    120 H120      -78.6731   21.5898  -78.0713 H         1 UNK         0.0807 
    121 H121      -78.4586   21.4135  -76.3287 H         1 UNK         0.0807 
    122 H122      -80.0946   23.2496  -76.7797 H         1 UNK         0.2946 
    123 H123      -81.4702   26.2739  -77.3001 H         1 UNK         0.1144 
    124 H124      -83.1639   24.6720  -76.4542 H         1 UNK         0.0793 
    125 H125      -81.9141   23.6097  -75.8263 H         1 UNK         0.0793 
    126 H126      -82.0778   23.8643  -77.5646 H         1 UNK         0.0793 
    127 H127      -81.7605   27.1669  -75.2760 H         1 UNK         0.2896 
@<TRIPOS>BOND
     1    1    2 1    
     2    1   67 1    
     3    1   68 1    
     4    1   69 1    
     5    2    3 2    
     6    2    4 am   BACKBONE|DICT|INTERRES
     7    4    5 1    
     8    4   70 1    
     9    5    6 1    
    10    5   65 1    
    11    5   71 1    
    12    6    7 1    
    13    6   72 1    
    14    6   73 1    
    15    7    8 1    
    16    8    9 1    
    17    8   74 1    
    18    8   75 1    
    19    9   10 ar   
    20    9   14 ar   
    21   10   11 ar   
    22   10   76 1    
    23   11   12 ar   
    24   11   48 1    
    25   12   13 ar   
    26   12   77 1    
    27   13   14 ar   
    28   13   15 1    
    29   14   78 1    
    30   15   16 1    
    31   15   79 1    
    32   15   80 1    
    33   16   17 1    
    34   17   18 1    
    35   17   81 1    
    36   17   82 1    
    37   18   19 1    
    38   18   22 1    
    39   18   83 1    
    40   19   20 am   BACKBONE|DICT|INTERRES
    41   19   21 2    
    42   20   84 1    
    43   20   85 1    
    44   22   23 am   BACKBONE|DICT|INTERRES
    45   22   86 1    
    46   23   24 2    
    47   23   25 1    
    48   25   26 1    
    49   25   27 1    
    50   25   87 1    
    51   26   88 1    
    52   26   89 1    
    53   26   90 1    
    54   27   28 am   BACKBONE|DICT|INTERRES
    55   27   91 1    
    56   28   29 2    
    57   28   30 1    
    58   30   31 1    
    59   30   32 1    
    60   30   92 1    
    61   31   93 1    
    62   31   94 1    
    63   31   95 1    
    64   32   33 am   BACKBONE|DICT|INTERRES
    65   32   96 1    
    66   33   34 2    
    67   33   35 1    
    68   35   36 1    
    69   35   37 1    
    70   35   97 1    
    71   36   98 1    
    72   36   99 1    
    73   36  100 1    
    74   37   38 am   BACKBONE|DICT|INTERRES
    75   37  101 1    
    76   38   39 2    
    77   38   40 1    
    78   40   41 1    
    79   40   42 1    
    80   40  102 1    
    81   41  103 1    
    82   41  104 1    
    83   41  105 1    
    84   42   43 am   BACKBONE|DICT|INTERRES
    85   42  106 1    
    86   43   44 2    
    87   43   45 1    
    88   45   46 1    
    89   45   49 1    
    90   45  107 1    
    91   46   47 1    
    92   46  108 1    
    93   46  109 1    
    94   47   48 1    
    95   48  110 1    
    96   48  111 1    
    97   49   50 am   BACKBONE|DICT|INTERRES
    98   49  112 1    
    99   50   51 2    
   100   50   52 1    
   101   52   53 1    
   102   52   54 1    
   103   52  113 1    
   104   53  114 1    
   105   53  115 1    
   106   53  116 1    
   107   54   55 am   BACKBONE|DICT|INTERRES
   108   54  117 1    
   109   55   56 2    
   110   55   57 1    
   111   57   58 1    
   112   57   59 1    
   113   57  118 1    
   114   58  119 1    
   115   58  120 1    
   116   58  121 1    
   117   59   60 am   BACKBONE|DICT|INTERRES
   118   59  122 1    
   119   60   61 2    
   120   60   62 1    
   121   62   63 1    
   122   62   64 1    
   123   62  123 1    
   124   63  124 1    
   125   63  125 1    
   126   63  126 1    
   127   64   65 am   BACKBONE|DICT|INTERRES
   128   64  127 1    
   129   65   66 2    
@<TRIPOS>SUBSTRUCTURE
     1 UNK         1 GROUP             0       ****    0 ROOT    
