@<TRIPOS>MOLECULE
3R135
127   129    1
SMALL
USER_CHARGES


@<TRIPOS>ATOM
      1 CA        -79.2493   23.8008  -72.7760 C.3       0 UNK        -0.1998 
      2 C         -80.4524   24.7150  -72.6248 C.2       0 UNK         0.4909 
      3 O         -81.5565   24.3419  -73.0222 O.2       0 UNK        -0.5240 
      4 N         -80.2539   25.9148  -72.0638 N.am      1 UNK        -0.4739 
      5 CA        -81.3118   26.9009  -71.8158 C.3       1 UNK         0.0864 
      6 C6        -80.8372   28.1010  -70.9593 C.3       11 UNK        -0.0881 
      7 S7        -79.9592   27.5873  -69.4425 S.3       11 UNK        -0.2682 
      8 C8        -78.3169   28.3370  -69.6893 C.3       11 UNK         0.0289 
      9 C9        -77.5735   27.7539  -70.8852 C.ar      11 UNK        -0.0687 
     10 C10       -76.9077   26.5305  -70.7743 C.ar      11 UNK        -0.0823 
     11 C11       -76.1720   26.0150  -71.8462 C.ar      11 UNK        -0.0830 
     12 C12       -76.1258   26.7399  -73.0441 C.ar      11 UNK        -0.1021 
     13 C13       -76.7857   27.9679  -73.1761 C.ar      11 UNK        -0.0753 
     14 C14       -77.5096   28.4621  -72.0885 C.ar      11 UNK        -0.0933 
     15 C15       -76.7286   28.8086  -74.4541 C.3       11 UNK         0.0166 
     16 S16       -75.4014   28.3546  -75.6246 S.3       11 UNK        -0.2615 
     17 C17       -75.4306   29.7735  -76.7773 C.3       11 UNK        -0.0865 
     18 CA        -74.3157   30.8260  -76.5175 C.3       10 UNK         0.0862 
     19 C         -74.6598   31.7600  -75.3220 C.2       10 UNK         0.5551 
     20 N         -75.5182   32.7467  -75.5425 N.am      10 UNK        -0.7319 
     21 O         -74.1943   31.5818  -74.1987 O.2       10 UNK        -0.5018 
     22 N         -72.9992   30.1851  -76.4090 N.am      10 UNK        -0.4509 
     23 C         -71.8144   30.8072  -76.3902 C.2       10 UNK         0.4899 
     24 O         -71.6682   32.0181  -76.5665 O.2       10 UNK        -0.4839 
     25 CA        -70.5915   29.8998  -76.1567 C.3       9 UNK         0.0222 
     26 CB        -69.2939   30.6776  -75.8467 C.3       9 UNK        -0.1966 
     27 N         -70.8629   28.8560  -75.1587 N.am      9 UNK        -0.4218 
     28 C         -71.0658   29.0123  -73.8386 C.2       9 UNK         0.5020 
     29 O         -70.9456   30.0881  -73.2513 O.2       9 UNK        -0.5274 
     30 CA        -71.4920   27.7744  -73.0179 C.3       8 UNK         0.0270 
     31 CB        -72.8834   27.9926  -72.3994 C.3       8 UNK        -0.1976 
     32 N         -71.5128   26.5274  -73.7868 N.am      8 UNK        -0.4313 
     33 C         -70.4316   25.8316  -74.1630 C.2       8 UNK         0.5041 
     34 O         -69.2834   26.1156  -73.8209 O.2       8 UNK        -0.5577 
     35 CA        -70.6618   24.6417  -75.1147 C.3       7 UNK         0.0284 
     36 CB        -70.6789   23.3207  -74.3291 C.3       7 UNK        -0.1958 
     37 N         -71.8849   24.7358  -75.9220 N.am      7 UNK        -0.4454 
     38 C         -72.1906   25.7083  -76.7913 C.2       7 UNK         0.5089 
     39 O         -71.4668   26.6818  -76.9989 O.2       7 UNK        -0.5125 
     40 CA        -73.5480   25.6250  -77.5135 C.3       6 UNK         0.0408 
     41 CB        -73.4113   24.9170  -78.8744 C.3       6 UNK        -0.1791 
     42 N         -74.6381   25.0552  -76.7060 N.am      6 UNK        -0.4762 
     43 C         -74.8088   23.7928  -76.2800 C.2       6 UNK         0.5007 
     44 O         -74.0161   22.8822  -76.5227 O.2       6 UNK        -0.5032 
     45 CA        -76.0363   23.4991  -75.3862 C.3       5 UNK         0.0783 
     46 C46       -75.6347   23.0409  -73.9558 C.3       11 UNK        -0.0857 
     47 S47       -74.4379   24.1028  -73.0643 S.3       11 UNK        -0.2512 
     48 C48       -75.4059   24.7062  -71.6351 C.3       11 UNK         0.0225 
     49 N         -77.0327   24.5822  -75.3759 N.am      5 UNK        -0.4615 
     50 C         -77.8604   24.8379  -76.4003 C.2       4 UNK         0.5053 
     51 O         -77.8374   24.1989  -77.4523 O.2       4 UNK        -0.5105 
     52 CA        -78.8461   26.0096  -76.2252 C.3       4 UNK         0.0263 
     53 CB        -78.6732   27.0648  -77.3358 C.3       4 UNK        -0.1981 
     54 N         -80.2456   25.5747  -76.1183 N.am      4 UNK        -0.4224 
     55 C         -81.0087   24.9310  -77.0194 C.2       3 UNK         0.4895 
     56 O         -80.6595   24.6426  -78.1636 O.2       3 UNK        -0.5091 
     57 CA        -82.4310   24.5451  -76.5746 C.3       3 UNK         0.0250 
     58 CB        -82.4643   23.0894  -76.0801 C.3       3 UNK        -0.1996 
     59 N         -82.9614   25.4314  -75.5344 N.am      3 UNK        -0.4254 
     60 C         -83.4950   26.6378  -75.7845 C.2       2 UNK         0.5004 
     61 O         -83.6463   27.0936  -76.9186 O.2       2 UNK        -0.5226 
     62 CA        -83.9345   27.4908  -74.5784 C.3       2 UNK         0.0269 
     63 CB        -85.4461   27.3441  -74.3388 C.3       2 UNK        -0.1926 
     64 N         -83.2181   27.1816  -73.3370 N.am      2 UNK        -0.4687 
     65 C         -81.9075   27.3857  -73.1502 C.2       1 UNK         0.5165 
     66 O         -81.1652   27.8916  -73.9946 O.2       1 UNK        -0.5079 
     67 H67       -79.1897   23.4216  -73.7955 H         1 UNK         0.0900 
     68 H68       -78.3216   24.3198  -72.5457 H         1 UNK         0.0900 
     69 H69       -79.3405   22.9496  -72.1021 H         1 UNK         0.0900 
     70 H70       -79.3299   26.1920  -71.7614 H         1 UNK         0.2959 
     71 H71       -82.0943   26.3869  -71.2528 H         1 UNK         0.1079 
     72 H72       -81.6962   28.7031  -70.6572 H         1 UNK         0.0837 
     73 H73       -80.2045   28.7704  -71.5425 H         1 UNK         0.0837 
     74 H74       -77.7239   28.1836  -68.7865 H         1 UNK         0.0685 
     75 H75       -78.4283   29.4173  -69.7952 H         1 UNK         0.0685 
     76 H76       -76.9424   25.9907  -69.8372 H         1 UNK         0.1434 
     77 H77       -75.5384   26.3693  -73.8670 H         1 UNK         0.1329 
     78 H78       -78.0096   29.4172  -72.1745 H         1 UNK         0.1335 
     79 H79       -76.5933   29.8538  -74.1738 H         1 UNK         0.0680 
     80 H80       -77.6906   28.7472  -74.9637 H         1 UNK         0.0680 
     81 H81       -76.4200   30.2351  -76.7782 H         1 UNK         0.1032 
     82 H82       -75.3063   29.3702  -77.7834 H         1 UNK         0.1032 
     83 H83       -74.2656   31.4652  -77.4015 H         1 UNK         0.0461 
     84 H84       -75.9114   32.9051  -76.4572 H         1 UNK         0.3453 
     85 H85       -75.7661   33.3572  -74.7798 H         1 UNK         0.3453 
     86 H86       -73.0218   29.1940  -76.2221 H         1 UNK         0.2984 
     87 H87       -70.4300   29.3711  -77.0972 H         1 UNK         0.0554 
     88 H88       -69.0224   31.3261  -76.6804 H         1 UNK         0.0847 
     89 H89       -68.4563   30.0014  -75.6766 H         1 UNK         0.0847 
     90 H90       -69.3978   31.3133  -74.9672 H         1 UNK         0.0847 
     91 H91       -70.9904   27.9286  -75.5539 H         1 UNK         0.3141 
     92 H92       -70.7720   27.6620  -72.2046 H         1 UNK         0.0743 
     93 H93       -72.8838   28.8538  -71.7301 H         1 UNK         0.0784 
     94 H94       -73.2045   27.1302  -71.8148 H         1 UNK         0.0784 
     95 H95       -73.6364   28.1826  -73.1642 H         1 UNK         0.0784 
     96 H96       -72.4158   26.1988  -74.0972 H         1 UNK         0.3213 
     97 H97       -69.8183   24.6179  -75.8077 H         1 UNK         0.0855 
     98 H98       -71.5168   23.2761  -73.6325 H         1 UNK         0.0814 
     99 H99       -69.7643   23.2006  -73.7467 H         1 UNK         0.0814 
    100 H100      -70.7515   22.4618  -74.9966 H         1 UNK         0.0814 
    101 H101      -72.5392   23.9611  -75.8605 H         1 UNK         0.3105 
    102 H102      -73.8491   26.6537  -77.7173 H         1 UNK         0.0547 
    103 H103      -73.0684   23.8874  -78.7703 H         1 UNK         0.0837 
    104 H104      -74.3600   24.9027  -79.4107 H         1 UNK         0.0837 
    105 H105      -72.6887   25.4333  -79.5078 H         1 UNK         0.0837 
    106 H106      -75.3348   25.7264  -76.4142 H         1 UNK         0.3020 
    107 H107      -76.5202   22.6373  -75.8532 H         1 UNK         0.1245 
    108 H108      -75.1763   22.0523  -74.0202 H         1 UNK         0.0781 
    109 H109      -76.5264   22.8909  -73.3479 H         1 UNK         0.0781 
    110 H110      -74.7032   24.8626  -70.8154 H         1 UNK         0.0836 
    111 H111      -76.0897   23.9266  -71.2973 H         1 UNK         0.0836 
    112 H112      -77.0722   25.1493  -74.5414 H         1 UNK         0.3022 
    113 H113      -78.6201   26.4985  -75.2765 H         1 UNK         0.0747 
    114 H114      -79.3111   27.9308  -77.1591 H         1 UNK         0.0793 
    115 H115      -77.6444   27.4218  -77.3807 H         1 UNK         0.0793 
    116 H116      -78.9152   26.6652  -78.3209 H         1 UNK         0.0793 
    117 H117      -80.6861   25.7899  -75.2346 H         1 UNK         0.3047 
    118 H118      -83.0787   24.6111  -77.4519 H         1 UNK         0.0822 
    119 H119      -83.4698   22.7937  -75.7803 H         1 UNK         0.0807 
    120 H120      -81.7998   22.9313  -75.2305 H         1 UNK         0.0807 
    121 H121      -82.1475   22.4054  -76.8686 H         1 UNK         0.0807 
    122 H122      -82.8491   25.1271  -74.5733 H         1 UNK         0.2946 
    123 H123      -83.7270   28.5329  -74.8330 H         1 UNK         0.1144 
    124 H124      -85.7899   28.0104  -73.5474 H         1 UNK         0.0793 
    125 H125      -85.7142   26.3238  -74.0612 H         1 UNK         0.0793 
    126 H126      -86.0101   27.5955  -75.2383 H         1 UNK         0.0793 
    127 H127      -83.7557   26.7402  -72.6042 H         1 UNK         0.2896 
@<TRIPOS>BOND
     1    1    2 1    
     2    1   67 1    
     3    1   68 1    
     4    1   69 1    
     5    2    3 2    
     6    2    4 am   BACKBONE|DICT|INTERRES
     7    4    5 1    
     8    4   70 1    
     9    5    6 1    
    10    5   65 1    
    11    5   71 1    
    12    6    7 1    
    13    6   72 1    
    14    6   73 1    
    15    7    8 1    
    16    8    9 1    
    17    8   74 1    
    18    8   75 1    
    19    9   10 ar   
    20    9   14 ar   
    21   10   11 ar   
    22   10   76 1    
    23   11   12 ar   
    24   11   48 1    
    25   12   13 ar   
    26   12   77 1    
    27   13   14 ar   
    28   13   15 1    
    29   14   78 1    
    30   15   16 1    
    31   15   79 1    
    32   15   80 1    
    33   16   17 1    
    34   17   18 1    
    35   17   81 1    
    36   17   82 1    
    37   18   19 1    
    38   18   22 1    
    39   18   83 1    
    40   19   20 am   BACKBONE|DICT|INTERRES
    41   19   21 2    
    42   20   84 1    
    43   20   85 1    
    44   22   23 am   BACKBONE|DICT|INTERRES
    45   22   86 1    
    46   23   24 2    
    47   23   25 1    
    48   25   26 1    
    49   25   27 1    
    50   25   87 1    
    51   26   88 1    
    52   26   89 1    
    53   26   90 1    
    54   27   28 am   BACKBONE|DICT|INTERRES
    55   27   91 1    
    56   28   29 2    
    57   28   30 1    
    58   30   31 1    
    59   30   32 1    
    60   30   92 1    
    61   31   93 1    
    62   31   94 1    
    63   31   95 1    
    64   32   33 am   BACKBONE|DICT|INTERRES
    65   32   96 1    
    66   33   34 2    
    67   33   35 1    
    68   35   36 1    
    69   35   37 1    
    70   35   97 1    
    71   36   98 1    
    72   36   99 1    
    73   36  100 1    
    74   37   38 am   BACKBONE|DICT|INTERRES
    75   37  101 1    
    76   38   39 2    
    77   38   40 1    
    78   40   41 1    
    79   40   42 1    
    80   40  102 1    
    81   41  103 1    
    82   41  104 1    
    83   41  105 1    
    84   42   43 am   BACKBONE|DICT|INTERRES
    85   42  106 1    
    86   43   44 2    
    87   43   45 1    
    88   45   46 1    
    89   45   49 1    
    90   45  107 1    
    91   46   47 1    
    92   46  108 1    
    93   46  109 1    
    94   47   48 1    
    95   48  110 1    
    96   48  111 1    
    97   49   50 am   BACKBONE|DICT|INTERRES
    98   49  112 1    
    99   50   51 2    
   100   50   52 1    
   101   52   53 1    
   102   52   54 1    
   103   52  113 1    
   104   53  114 1    
   105   53  115 1    
   106   53  116 1    
   107   54   55 am   BACKBONE|DICT|INTERRES
   108   54  117 1    
   109   55   56 2    
   110   55   57 1    
   111   57   58 1    
   112   57   59 1    
   113   57  118 1    
   114   58  119 1    
   115   58  120 1    
   116   58  121 1    
   117   59   60 am   BACKBONE|DICT|INTERRES
   118   59  122 1    
   119   60   61 2    
   120   60   62 1    
   121   62   63 1    
   122   62   64 1    
   123   62  123 1    
   124   63  124 1    
   125   63  125 1    
   126   63  126 1    
   127   64   65 am   BACKBONE|DICT|INTERRES
   128   64  127 1    
   129   65   66 2    
@<TRIPOS>SUBSTRUCTURE
     1 UNK         1 GROUP             0       ****    0 ROOT    
