@<TRIPOS>MOLECULE
3R135
127   129    1
SMALL
USER_CHARGES


@<TRIPOS>ATOM
      1 CA        -82.9953   27.3578  -71.6632 C.3       0 UNK        -0.1998 
      2 C         -82.0270   27.4179  -72.8342 C.2       0 UNK         0.4909 
      3 O         -81.1334   26.5794  -72.9254 O.2       0 UNK        -0.5240 
      4 N         -82.2062   28.3981  -73.7294 N.am      1 UNK        -0.4739 
      5 CA        -81.4016   28.6996  -74.9260 C.3       1 UNK         0.0864 
      6 C6        -79.9083   29.0165  -74.6383 C.3       11 UNK        -0.0881 
      7 S7        -79.7344   30.4673  -73.5428 S.3       11 UNK        -0.2682 
      8 C8        -77.9211   30.5770  -73.3439 C.3       11 UNK         0.0289 
      9 C9        -77.2744   29.5512  -72.4087 C.ar      11 UNK        -0.0687 
     10 C10       -78.0083   28.6440  -71.6347 C.ar      11 UNK        -0.0823 
     11 C11       -77.3571   27.6871  -70.8500 C.ar      11 UNK        -0.0830 
     12 C12       -75.9627   27.6826  -70.7775 C.ar      11 UNK        -0.1021 
     13 C13       -75.2146   28.5864  -71.5340 C.ar      11 UNK        -0.0753 
     14 C14       -75.8791   29.5082  -72.3482 C.ar      11 UNK        -0.0933 
     15 C15       -73.6961   28.4882  -71.5481 C.3       11 UNK         0.0166 
     16 S16       -72.8673   29.7039  -70.4748 S.3       11 UNK        -0.2615 
     17 C17       -72.9184   31.2644  -71.4349 C.3       11 UNK        -0.0865 
     18 CA        -71.8897   31.3974  -72.6007 C.3       10 UNK         0.0862 
     19 C         -70.4134   31.1963  -72.1657 C.2       10 UNK         0.5551 
     20 N         -69.8954   32.0706  -71.3135 N.am      10 UNK        -0.7319 
     21 O         -69.7328   30.2626  -72.5863 O.2       10 UNK        -0.5018 
     22 N         -72.2350   30.5687  -73.7623 N.am      10 UNK        -0.4509 
     23 C         -73.2168   30.8209  -74.6326 C.2       10 UNK         0.4899 
     24 O         -73.9305   31.8222  -74.5686 O.2       10 UNK        -0.4839 
     25 CA        -73.5015   29.7935  -75.7457 C.3       9 UNK         0.0222 
     26 CB        -72.7921   30.1923  -77.0541 C.3       9 UNK        -0.1966 
     27 N         -73.2522   28.3819  -75.4139 N.am      9 UNK        -0.4218 
     28 C         -72.0827   27.7642  -75.1894 C.2       9 UNK         0.5020 
     29 O         -71.0023   28.3462  -75.0939 O.2       9 UNK        -0.5274 
     30 CA        -72.1195   26.2306  -75.0676 C.3       8 UNK         0.0270 
     31 CB        -72.4727   25.7990  -73.6356 C.3       8 UNK        -0.1976 
     32 N         -73.0486   25.6103  -76.0162 N.am      8 UNK        -0.4313 
     33 C         -72.8953   25.6161  -77.3491 C.2       8 UNK         0.5041 
     34 O         -71.9019   26.0639  -77.9237 O.2       8 UNK        -0.5577 
     35 CA        -74.0499   25.0422  -78.1898 C.3       7 UNK         0.0284 
     36 CB        -73.9350   23.5144  -78.3034 C.3       7 UNK        -0.1958 
     37 N         -75.3707   25.4102  -77.6707 N.am      7 UNK        -0.4454 
     38 C         -75.8466   26.6638  -77.6397 C.2       7 UNK         0.5089 
     39 O         -75.2488   27.6378  -78.0961 O.2       7 UNK        -0.5125 
     40 CA        -77.2172   26.8754  -76.9746 C.3       6 UNK         0.0408 
     41 CB        -78.3362   26.6388  -77.9982 C.3       6 UNK        -0.1791 
     42 N         -77.4185   26.0439  -75.7804 N.am      6 UNK        -0.4762 
     43 C         -76.6766   26.1491  -74.6663 C.2       6 UNK         0.5007 
     44 O         -75.7840   26.9871  -74.5281 O.2       6 UNK        -0.5032 
     45 CA        -76.8992   25.0849  -73.5689 C.3       5 UNK         0.0783 
     46 C46       -78.1741   25.3387  -72.7208 C.3       11 UNK        -0.0857 
     47 S47       -77.9041   24.9688  -70.9512 S.3       11 UNK        -0.2512 
     48 C48       -78.1609   26.5960  -70.1595 C.3       11 UNK         0.0225 
     49 N         -76.9150   23.7407  -74.1482 N.am      5 UNK        -0.4615 
     50 C         -75.8654   23.1397  -74.7206 C.2       4 UNK         0.5053 
     51 O         -74.7401   23.6331  -74.7697 O.2       4 UNK        -0.5105 
     52 CA        -76.1174   21.7729  -75.3807 C.3       4 UNK         0.0263 
     53 CB        -75.8464   20.6386  -74.3802 C.3       4 UNK        -0.1981 
     54 N         -77.4678   21.6246  -75.9316 N.am      4 UNK        -0.4224 
     55 C         -77.9902   22.3710  -76.9160 C.2       3 UNK         0.4895 
     56 O         -77.3706   23.2698  -77.4879 O.2       3 UNK        -0.5091 
     57 CA        -79.4480   22.0750  -77.3319 C.3       3 UNK         0.0250 
     58 CB        -80.1434   20.9986  -76.4659 C.3       3 UNK        -0.1996 
     59 N         -80.2942   23.2758  -77.3925 N.am      3 UNK        -0.4254 
     60 C         -80.4721   24.1897  -76.4270 C.2       2 UNK         0.5004 
     61 O         -79.8459   24.2040  -75.3658 O.2       2 UNK        -0.5226 
     62 CA        -81.5464   25.2534  -76.6920 C.3       2 UNK         0.0269 
     63 CB        -82.9562   24.6558  -76.5368 C.3       2 UNK        -0.1926 
     64 N         -81.4023   26.3691  -75.7553 N.am      2 UNK        -0.4687 
     65 C         -81.5670   27.6616  -76.0570 C.2       1 UNK         0.5165 
     66 O         -81.8599   28.0563  -77.1867 O.2       1 UNK        -0.5079 
     67 H67       -82.4493   27.4383  -70.7236 H         1 UNK         0.0900 
     68 H68       -83.7305   28.1614  -71.6985 H         1 UNK         0.0900 
     69 H69       -83.5287   26.4078  -71.6673 H         1 UNK         0.0900 
     70 H70       -82.9822   29.0302  -73.5889 H         1 UNK         0.2959 
     71 H71       -81.8402   29.6170  -75.3234 H         1 UNK         0.1079 
     72 H72       -79.4016   28.1588  -74.1950 H         1 UNK         0.0837 
     73 H73       -79.3784   29.2345  -75.5677 H         1 UNK         0.0837 
     74 H74       -77.6867   31.5730  -72.9662 H         1 UNK         0.0685 
     75 H75       -77.4586   30.5064  -74.3299 H         1 UNK         0.0685 
     76 H76       -79.0877   28.6326  -71.6799 H         1 UNK         0.1434 
     77 H77       -75.4614   26.9336  -70.1796 H         1 UNK         0.1329 
     78 H78       -75.3109   30.1827  -72.9667 H         1 UNK         0.1335 
     79 H79       -73.3939   27.4955  -71.2116 H         1 UNK         0.0680 
     80 H80       -73.3318   28.5657  -72.5683 H         1 UNK         0.0680 
     81 H81       -72.7441   32.0711  -70.7213 H         1 UNK         0.1032 
     82 H82       -73.9302   31.4439  -71.7926 H         1 UNK         0.1032 
     83 H83       -71.9332   32.4308  -72.9510 H         1 UNK         0.0461 
     84 H84       -70.4379   32.8434  -70.9608 H         1 UNK         0.3453 
     85 H85       -68.9389   31.9552  -71.0168 H         1 UNK         0.3453 
     86 H86       -71.6230   29.7732  -73.9301 H         1 UNK         0.2984 
     87 H87       -74.5752   29.8440  -75.9347 H         1 UNK         0.0554 
     88 H88       -73.0756   31.2003  -77.3595 H         1 UNK         0.0847 
     89 H89       -73.0604   29.5192  -77.8689 H         1 UNK         0.0847 
     90 H90       -71.7068   30.1783  -76.9508 H         1 UNK         0.0847 
     91 H91       -74.0889   27.8064  -75.3690 H         1 UNK         0.3141 
     92 H92       -71.1176   25.8599  -75.2940 H         1 UNK         0.0743 
     93 H93       -71.7989   26.2579  -72.9108 H         1 UNK         0.0784 
     94 H94       -73.4907   26.0820  -73.3671 H         1 UNK         0.0784 
     95 H95       -72.3880   24.7185  -73.5177 H         1 UNK         0.0784 
     96 H96       -73.8551   25.1336  -75.6204 H         1 UNK         0.3213 
     97 H97       -73.9673   25.4614  -79.1950 H         1 UNK         0.0855 
     98 H98       -73.9182   23.0379  -77.3242 H         1 UNK         0.0814 
     99 H99       -73.0122   23.2341  -78.8129 H         1 UNK         0.0814 
    100 H100      -74.7628   23.0908  -78.8726 H         1 UNK         0.0814 
    101 H101      -75.9751   24.6579  -77.3517 H         1 UNK         0.3105 
    102 H102      -77.2681   27.9196  -76.6585 H         1 UNK         0.0547 
    103 H103      -78.4016   25.5934  -78.2993 H         1 UNK         0.0837 
    104 H104      -78.1676   27.2255  -78.9024 H         1 UNK         0.0837 
    105 H105      -79.3009   26.9431  -77.6037 H         1 UNK         0.0837 
    106 H106      -78.1179   25.3102  -75.8256 H         1 UNK         0.3020 
    107 H107      -76.0242   25.1540  -72.9179 H         1 UNK         0.1245 
    108 H108      -79.0075   24.7229  -73.0567 H         1 UNK         0.0781 
    109 H109      -78.5336   26.3587  -72.8334 H         1 UNK         0.0781 
    110 H110      -77.8722   26.5359  -69.1093 H         1 UNK         0.0836 
    111 H111      -79.2268   26.8300  -70.1747 H         1 UNK         0.0836 
    112 H112      -77.8184   23.2909  -74.1995 H         1 UNK         0.3022 
    113 H113      -75.4139   21.6693  -76.2079 H         1 UNK         0.0747 
    114 H114      -75.9331   19.6607  -74.8543 H         1 UNK         0.0793 
    115 H115      -74.8363   20.7108  -73.9742 H         1 UNK         0.0793 
    116 H116      -76.5387   20.6677  -73.5377 H         1 UNK         0.0793 
    117 H117      -78.0500   20.9115  -75.5169 H         1 UNK         0.3047 
    118 H118      -79.3897   21.6905  -78.3512 H         1 UNK         0.0822 
    119 H119      -81.1531   20.8023  -76.8271 H         1 UNK         0.0807 
    120 H120      -80.2261   21.3039  -75.4216 H         1 UNK         0.0807 
    121 H121      -79.6105   20.0474  -76.5009 H         1 UNK         0.0807 
    122 H122      -80.8254   23.3789  -78.2460 H         1 UNK         0.2946 
    123 H123      -81.4165   25.6074  -77.7173 H         1 UNK         0.1144 
    124 H124      -83.7258   25.3990  -76.7462 H         1 UNK         0.0793 
    125 H125      -83.1222   24.2792  -75.5265 H         1 UNK         0.0793 
    126 H126      -83.1152   23.8254  -77.2258 H         1 UNK         0.0793 
    127 H127      -81.1286   26.1242  -74.8052 H         1 UNK         0.2896 
@<TRIPOS>BOND
     1    1    2 1    
     2    1   67 1    
     3    1   68 1    
     4    1   69 1    
     5    2    3 2    
     6    2    4 am   BACKBONE|DICT|INTERRES
     7    4    5 1    
     8    4   70 1    
     9    5    6 1    
    10    5   65 1    
    11    5   71 1    
    12    6    7 1    
    13    6   72 1    
    14    6   73 1    
    15    7    8 1    
    16    8    9 1    
    17    8   74 1    
    18    8   75 1    
    19    9   10 ar   
    20    9   14 ar   
    21   10   11 ar   
    22   10   76 1    
    23   11   12 ar   
    24   11   48 1    
    25   12   13 ar   
    26   12   77 1    
    27   13   14 ar   
    28   13   15 1    
    29   14   78 1    
    30   15   16 1    
    31   15   79 1    
    32   15   80 1    
    33   16   17 1    
    34   17   18 1    
    35   17   81 1    
    36   17   82 1    
    37   18   19 1    
    38   18   22 1    
    39   18   83 1    
    40   19   20 am   BACKBONE|DICT|INTERRES
    41   19   21 2    
    42   20   84 1    
    43   20   85 1    
    44   22   23 am   BACKBONE|DICT|INTERRES
    45   22   86 1    
    46   23   24 2    
    47   23   25 1    
    48   25   26 1    
    49   25   27 1    
    50   25   87 1    
    51   26   88 1    
    52   26   89 1    
    53   26   90 1    
    54   27   28 am   BACKBONE|DICT|INTERRES
    55   27   91 1    
    56   28   29 2    
    57   28   30 1    
    58   30   31 1    
    59   30   32 1    
    60   30   92 1    
    61   31   93 1    
    62   31   94 1    
    63   31   95 1    
    64   32   33 am   BACKBONE|DICT|INTERRES
    65   32   96 1    
    66   33   34 2    
    67   33   35 1    
    68   35   36 1    
    69   35   37 1    
    70   35   97 1    
    71   36   98 1    
    72   36   99 1    
    73   36  100 1    
    74   37   38 am   BACKBONE|DICT|INTERRES
    75   37  101 1    
    76   38   39 2    
    77   38   40 1    
    78   40   41 1    
    79   40   42 1    
    80   40  102 1    
    81   41  103 1    
    82   41  104 1    
    83   41  105 1    
    84   42   43 am   BACKBONE|DICT|INTERRES
    85   42  106 1    
    86   43   44 2    
    87   43   45 1    
    88   45   46 1    
    89   45   49 1    
    90   45  107 1    
    91   46   47 1    
    92   46  108 1    
    93   46  109 1    
    94   47   48 1    
    95   48  110 1    
    96   48  111 1    
    97   49   50 am   BACKBONE|DICT|INTERRES
    98   49  112 1    
    99   50   51 2    
   100   50   52 1    
   101   52   53 1    
   102   52   54 1    
   103   52  113 1    
   104   53  114 1    
   105   53  115 1    
   106   53  116 1    
   107   54   55 am   BACKBONE|DICT|INTERRES
   108   54  117 1    
   109   55   56 2    
   110   55   57 1    
   111   57   58 1    
   112   57   59 1    
   113   57  118 1    
   114   58  119 1    
   115   58  120 1    
   116   58  121 1    
   117   59   60 am   BACKBONE|DICT|INTERRES
   118   59  122 1    
   119   60   61 2    
   120   60   62 1    
   121   62   63 1    
   122   62   64 1    
   123   62  123 1    
   124   63  124 1    
   125   63  125 1    
   126   63  126 1    
   127   64   65 am   BACKBONE|DICT|INTERRES
   128   64  127 1    
   129   65   66 2    
@<TRIPOS>SUBSTRUCTURE
     1 UNK         1 GROUP             0       ****    0 ROOT    
