@<TRIPOS>MOLECULE
3R135
127   129    1
SMALL
USER_CHARGES


@<TRIPOS>ATOM
      1 CA        -83.6672   26.0729  -72.9917 C.3       0 UNK        -0.1998 
      2 C         -82.7225   27.0069  -73.7337 C.2       0 UNK         0.4909 
      3 O         -83.0755   27.5147  -74.7983 O.2       0 UNK        -0.5240 
      4 N         -81.5286   27.2416  -73.1758 N.am      1 UNK        -0.4739 
      5 CA        -80.4705   28.0502  -73.7876 C.3       1 UNK         0.0864 
      6 C6        -79.5144   28.6232  -72.7101 C.3       11 UNK        -0.0881 
      7 S7        -78.8579   30.2670  -73.1546 S.3       11 UNK        -0.2682 
      8 C8        -77.1916   29.8914  -73.7903 C.3       11 UNK         0.0289 
      9 C9        -76.3080   29.1953  -72.7645 C.ar      11 UNK        -0.0687 
     10 C10       -75.8710   27.8887  -72.9930 C.ar      11 UNK        -0.0823 
     11 C11       -75.0565   27.2337  -72.0643 C.ar      11 UNK        -0.0830 
     12 C12       -74.6595   27.9128  -70.9085 C.ar      11 UNK        -0.1021 
     13 C13       -75.0595   29.2346  -70.6841 C.ar      11 UNK        -0.0753 
     14 C14       -75.9020   29.8628  -71.6059 C.ar      11 UNK        -0.0933 
     15 C15       -74.5668   29.9765  -69.4496 C.3       11 UNK         0.0166 
     16 S16       -72.7858   30.3488  -69.5683 S.3       11 UNK        -0.2615 
     17 C17       -72.7568   32.0672  -70.1947 C.3       11 UNK        -0.0865 
     18 CA        -73.1986   32.2527  -71.6729 C.3       10 UNK         0.0862 
     19 C         -73.0263   33.7342  -72.1205 C.2       10 UNK         0.5551 
     20 N         -72.2252   34.0353  -73.1352 N.am      10 UNK        -0.7319 
     21 O         -73.6341   34.6264  -71.5340 O.2       10 UNK        -0.5018 
     22 N         -72.5972   31.2522  -72.5720 N.am      10 UNK        -0.4509 
     23 C         -73.1064   30.8941  -73.7578 C.2       10 UNK         0.4899 
     24 O         -74.0983   31.4288  -74.2573 O.2       10 UNK        -0.4839 
     25 CA        -72.3815   29.7559  -74.5056 C.3       9 UNK         0.0222 
     26 CB        -71.8200   28.6749  -73.5599 C.3       9 UNK        -0.1966 
     27 N         -73.2663   29.1097  -75.4768 N.am      9 UNK        -0.4218 
     28 C         -73.4606   29.5061  -76.7403 C.2       9 UNK         0.5020 
     29 O         -72.8708   30.4544  -77.2629 O.2       9 UNK        -0.5274 
     30 CA        -74.4407   28.6520  -77.5692 C.3       8 UNK         0.0270 
     31 CB        -74.7083   29.2381  -78.9687 C.3       8 UNK        -0.1976 
     32 N         -73.9242   27.2884  -77.7122 N.am      8 UNK        -0.4313 
     33 C         -74.0617   26.3269  -76.7932 C.2       8 UNK         0.5041 
     34 O         -74.7443   26.4531  -75.7736 O.2       8 UNK        -0.5577 
     35 CA        -73.2551   25.0446  -77.0148 C.3       7 UNK         0.0284 
     36 CB        -71.7537   25.2959  -76.7706 C.3       7 UNK        -0.1958 
     37 N         -73.7414   24.0240  -76.0922 N.am      7 UNK        -0.4454 
     38 C         -73.5802   22.7047  -76.2333 C.2       7 UNK         0.5089 
     39 O         -72.9711   22.1930  -77.1741 O.2       7 UNK        -0.5125 
     40 CA        -74.1785   21.7843  -75.1492 C.3       6 UNK         0.0408 
     41 CB        -73.0610   21.2398  -74.2441 C.3       6 UNK        -0.1791 
     42 N         -75.2219   22.3772  -74.3025 N.am      6 UNK        -0.4762 
     43 C         -76.4096   22.8283  -74.7268 C.2       6 UNK         0.5007 
     44 O         -76.7135   22.9159  -75.9196 O.2       6 UNK        -0.5032 
     45 CA        -77.4112   23.2652  -73.6320 C.3       5 UNK         0.0783 
     46 C46       -77.0425   24.6386  -73.0209 C.3       11 UNK        -0.0857 
     47 S47       -75.7393   24.5515  -71.7473 S.3       11 UNK        -0.2512 
     48 C48       -74.5621   25.8154  -72.3256 C.3       11 UNK         0.0225 
     49 N         -78.7615   23.3129  -74.1902 N.am      5 UNK        -0.4615 
     50 C         -79.5350   22.2518  -74.4486 C.2       4 UNK         0.5053 
     51 O         -79.2918   21.1095  -74.0585 O.2       4 UNK        -0.5105 
     52 CA        -80.7582   22.5138  -75.3432 C.3       4 UNK         0.0263 
     53 CB        -81.8453   23.2982  -74.5916 C.3       4 UNK        -0.1981 
     54 N         -80.3568   23.2441  -76.5485 N.am      4 UNK        -0.4224 
     55 C         -79.6759   22.7019  -77.5684 C.2       3 UNK         0.4895 
     56 O         -79.5022   21.4891  -77.6967 O.2       3 UNK        -0.5091 
     57 CA        -79.0470   23.6489  -78.6102 C.3       3 UNK         0.0250 
     58 CB        -79.9561   23.8148  -79.8446 C.3       3 UNK        -0.1996 
     59 N         -78.5968   24.9436  -78.0718 N.am      3 UNK        -0.4254 
     60 C         -79.3414   25.9687  -77.6370 C.2       2 UNK         0.5004 
     61 O         -80.5735   25.9881  -77.6734 O.2       2 UNK        -0.5226 
     62 CA        -78.5760   27.1640  -77.0370 C.3       2 UNK         0.0269 
     63 CB        -78.2703   28.2043  -78.1260 C.3       2 UNK        -0.1926 
     64 N         -79.3128   27.8163  -75.9480 N.am      2 UNK        -0.4687 
     65 C         -79.7041   27.2040  -74.8224 C.2       1 UNK         0.5165 
     66 O         -79.4533   26.0229  -74.5703 O.2       1 UNK        -0.5079 
     67 H67       -84.0214   25.2879  -73.6591 H         1 UNK         0.0900 
     68 H68       -84.5327   26.6265  -72.6287 H         1 UNK         0.0900 
     69 H69       -83.1837   25.5978  -72.1383 H         1 UNK         0.0900 
     70 H70       -81.2765   26.7659  -72.3214 H         1 UNK         0.2959 
     71 H71       -80.9523   28.8810  -74.3090 H         1 UNK         0.1079 
     72 H72       -80.0579   28.7728  -71.7756 H         1 UNK         0.0837 
     73 H73       -78.7111   27.9281  -72.4590 H         1 UNK         0.0837 
     74 H74       -77.2767   29.2951  -74.6992 H         1 UNK         0.0685 
     75 H75       -76.7173   30.8269  -74.0884 H         1 UNK         0.0685 
     76 H76       -76.1652   27.3900  -73.9036 H         1 UNK         0.1434 
     77 H77       -74.0126   27.4237  -70.1929 H         1 UNK         0.1329 
     78 H78       -76.2327   30.8778  -71.4355 H         1 UNK         0.1335 
     79 H79       -74.7365   29.3528  -68.5709 H         1 UNK         0.0680 
     80 H80       -75.1331   30.8949  -69.2872 H         1 UNK         0.0680 
     81 H81       -71.7366   32.4338  -70.0665 H         1 UNK         0.1032 
     82 H82       -73.3737   32.6822  -69.5364 H         1 UNK         0.1032 
     83 H83       -74.2748   32.0855  -71.6965 H         1 UNK         0.0461 
     84 H84       -72.1229   34.9970  -73.4185 H         1 UNK         0.3453 
     85 H85       -71.7322   33.3069  -73.6259 H         1 UNK         0.3453 
     86 H86       -71.7866   30.7691  -72.2155 H         1 UNK         0.2984 
     87 H87       -71.5396   30.2039  -75.0372 H         1 UNK         0.0554 
     88 H88       -71.4055   27.8357  -74.1188 H         1 UNK         0.0847 
     89 H89       -72.5880   28.2829  -72.8943 H         1 UNK         0.0847 
     90 H90       -71.0139   29.0644  -72.9376 H         1 UNK         0.0847 
     91 H91       -73.8087   28.3194  -75.1471 H         1 UNK         0.3141 
     92 H92       -75.3898   28.6281  -77.0296 H         1 UNK         0.0743 
     93 H93       -73.7951   29.3091  -79.5608 H         1 UNK         0.0784 
     94 H94       -75.4197   28.6290  -79.5259 H         1 UNK         0.0784 
     95 H95       -75.1292   30.2418  -78.8956 H         1 UNK         0.0784 
     96 H96       -73.3160   27.1223  -78.5018 H         1 UNK         0.3213 
     97 H97       -73.4171   24.7094  -78.0417 H         1 UNK         0.0855 
     98 H98       -71.3615   26.0574  -77.4456 H         1 UNK         0.0814 
     99 H99       -71.1658   24.3927  -76.9345 H         1 UNK         0.0814 
    100 H100      -71.5651   25.6353  -75.7512 H         1 UNK         0.0814 
    101 H101      -74.3182   24.3835  -75.3421 H         1 UNK         0.3105 
    102 H102      -74.6314   20.9388  -75.6710 H         1 UNK         0.0547 
    103 H103      -72.2799   20.7563  -74.8327 H         1 UNK         0.0837 
    104 H104      -72.5872   22.0348  -73.6669 H         1 UNK         0.0837 
    105 H105      -73.4409   20.4950  -73.5446 H         1 UNK         0.0837 
    106 H106      -75.0366   22.3857  -73.3087 H         1 UNK         0.3020 
    107 H107      -77.4065   22.5093  -72.8431 H         1 UNK         0.1245 
    108 H108      -77.9125   25.0774  -72.5291 H         1 UNK         0.0781 
    109 H109      -76.7716   25.3336  -73.8144 H         1 UNK         0.0781 
    110 H110      -74.3538   25.6699  -73.3844 H         1 UNK         0.0836 
    111 H111      -73.6105   25.6589  -71.8155 H         1 UNK         0.0836 
    112 H112      -79.0572   24.2283  -74.5220 H         1 UNK         0.3022 
    113 H113      -81.1773   21.5498  -75.6397 H         1 UNK         0.0747 
    114 H114      -82.7252   23.4523  -75.2163 H         1 UNK         0.0793 
    115 H115      -82.1690   22.7588  -73.7006 H         1 UNK         0.0793 
    116 H116      -81.4891   24.2761  -74.2691 H         1 UNK         0.0793 
    117 H117      -80.4897   24.2495  -76.5540 H         1 UNK         0.3047 
    118 H118      -78.1345   23.1545  -78.9483 H         1 UNK         0.0822 
    119 H119      -79.4899   24.4479  -80.5995 H         1 UNK         0.0807 
    120 H120      -80.9220   24.2510  -79.5888 H         1 UNK         0.0807 
    121 H121      -80.1550   22.8485  -80.3097 H         1 UNK         0.0807 
    122 H122      -77.5949   25.0125  -77.9551 H         1 UNK         0.2946 
    123 H123      -77.6330   26.8006  -76.6202 H         1 UNK         0.1144 
    124 H124      -77.7045   29.0467  -77.7285 H         1 UNK         0.0793 
    125 H125      -79.1844   28.5969  -78.5736 H         1 UNK         0.0793 
    126 H126      -77.6782   27.7653  -78.9299 H         1 UNK         0.0793 
    127 H127      -79.5754   28.7798  -76.0953 H         1 UNK         0.2896 
@<TRIPOS>BOND
     1    1    2 1    
     2    1   67 1    
     3    1   68 1    
     4    1   69 1    
     5    2    3 2    
     6    2    4 am   BACKBONE|DICT|INTERRES
     7    4    5 1    
     8    4   70 1    
     9    5    6 1    
    10    5   65 1    
    11    5   71 1    
    12    6    7 1    
    13    6   72 1    
    14    6   73 1    
    15    7    8 1    
    16    8    9 1    
    17    8   74 1    
    18    8   75 1    
    19    9   10 ar   
    20    9   14 ar   
    21   10   11 ar   
    22   10   76 1    
    23   11   12 ar   
    24   11   48 1    
    25   12   13 ar   
    26   12   77 1    
    27   13   14 ar   
    28   13   15 1    
    29   14   78 1    
    30   15   16 1    
    31   15   79 1    
    32   15   80 1    
    33   16   17 1    
    34   17   18 1    
    35   17   81 1    
    36   17   82 1    
    37   18   19 1    
    38   18   22 1    
    39   18   83 1    
    40   19   20 am   BACKBONE|DICT|INTERRES
    41   19   21 2    
    42   20   84 1    
    43   20   85 1    
    44   22   23 am   BACKBONE|DICT|INTERRES
    45   22   86 1    
    46   23   24 2    
    47   23   25 1    
    48   25   26 1    
    49   25   27 1    
    50   25   87 1    
    51   26   88 1    
    52   26   89 1    
    53   26   90 1    
    54   27   28 am   BACKBONE|DICT|INTERRES
    55   27   91 1    
    56   28   29 2    
    57   28   30 1    
    58   30   31 1    
    59   30   32 1    
    60   30   92 1    
    61   31   93 1    
    62   31   94 1    
    63   31   95 1    
    64   32   33 am   BACKBONE|DICT|INTERRES
    65   32   96 1    
    66   33   34 2    
    67   33   35 1    
    68   35   36 1    
    69   35   37 1    
    70   35   97 1    
    71   36   98 1    
    72   36   99 1    
    73   36  100 1    
    74   37   38 am   BACKBONE|DICT|INTERRES
    75   37  101 1    
    76   38   39 2    
    77   38   40 1    
    78   40   41 1    
    79   40   42 1    
    80   40  102 1    
    81   41  103 1    
    82   41  104 1    
    83   41  105 1    
    84   42   43 am   BACKBONE|DICT|INTERRES
    85   42  106 1    
    86   43   44 2    
    87   43   45 1    
    88   45   46 1    
    89   45   49 1    
    90   45  107 1    
    91   46   47 1    
    92   46  108 1    
    93   46  109 1    
    94   47   48 1    
    95   48  110 1    
    96   48  111 1    
    97   49   50 am   BACKBONE|DICT|INTERRES
    98   49  112 1    
    99   50   51 2    
   100   50   52 1    
   101   52   53 1    
   102   52   54 1    
   103   52  113 1    
   104   53  114 1    
   105   53  115 1    
   106   53  116 1    
   107   54   55 am   BACKBONE|DICT|INTERRES
   108   54  117 1    
   109   55   56 2    
   110   55   57 1    
   111   57   58 1    
   112   57   59 1    
   113   57  118 1    
   114   58  119 1    
   115   58  120 1    
   116   58  121 1    
   117   59   60 am   BACKBONE|DICT|INTERRES
   118   59  122 1    
   119   60   61 2    
   120   60   62 1    
   121   62   63 1    
   122   62   64 1    
   123   62  123 1    
   124   63  124 1    
   125   63  125 1    
   126   63  126 1    
   127   64   65 am   BACKBONE|DICT|INTERRES
   128   64  127 1    
   129   65   66 2    
@<TRIPOS>SUBSTRUCTURE
     1 UNK         1 GROUP             0       ****    0 ROOT    
