@<TRIPOS>MOLECULE
3R135
127   129    1
SMALL
USER_CHARGES


@<TRIPOS>ATOM
      1 CA        -84.0178   29.0305  -77.8144 C.3       0 UNK        -0.1998 
      2 C         -84.2999   29.1615  -76.3197 C.2       0 UNK         0.4909 
      3 O         -85.4652   29.2237  -75.9326 O.2       0 UNK        -0.5240 
      4 N         -83.2886   29.2195  -75.4406 N.am      1 UNK        -0.4739 
      5 CA        -81.8485   29.0884  -75.7073 C.3       1 UNK         0.0864 
      6 C6        -80.9980   29.5137  -74.4803 C.3       11 UNK        -0.0881 
      7 S7        -81.4823   28.6964  -72.9192 S.3       11 UNK        -0.2682 
      8 C8        -80.4705   29.6006  -71.7063 C.3       11 UNK         0.0289 
      9 C9        -79.0567   29.0446  -71.6100 C.ar      11 UNK        -0.0687 
     10 C10       -78.8388   27.8081  -70.9937 C.ar      11 UNK        -0.0823 
     11 C11       -77.5442   27.3012  -70.8550 C.ar      11 UNK        -0.0830 
     12 C12       -76.4674   28.0436  -71.3406 C.ar      11 UNK        -0.1021 
     13 C13       -76.6642   29.2740  -71.9719 C.ar      11 UNK        -0.0753 
     14 C14       -77.9664   29.7712  -72.1021 C.ar      11 UNK        -0.0933 
     15 C15       -75.4811   30.0424  -72.5523 C.3       11 UNK         0.0166 
     16 S16       -74.3008   30.6248  -71.2902 S.3       11 UNK        -0.2615 
     17 C17       -73.0486   29.2887  -71.2442 C.3       11 UNK        -0.0865 
     18 CA        -71.8651   29.5362  -72.2132 C.3       10 UNK         0.0862 
     19 C         -70.7075   28.5438  -71.9383 C.2       10 UNK         0.5551 
     20 N         -69.6348   28.9991  -71.3064 N.am      10 UNK        -0.7319 
     21 O         -70.7920   27.3584  -72.2531 O.2       10 UNK        -0.5018 
     22 N         -72.2957   29.4152  -73.6097 N.am      10 UNK        -0.4509 
     23 C         -71.8829   30.2033  -74.6077 C.2       10 UNK         0.4899 
     24 O         -71.1120   31.1536  -74.4601 O.2       10 UNK        -0.4839 
     25 CA        -72.4422   29.8716  -76.0036 C.3       9 UNK         0.0222 
     26 CB        -71.8137   30.7183  -77.1311 C.3       9 UNK        -0.1966 
     27 N         -72.3685   28.4408  -76.3179 N.am      9 UNK        -0.4218 
     28 C         -71.2669   27.6782  -76.4115 C.2       9 UNK         0.5020 
     29 O         -70.1217   28.1073  -76.2626 O.2       9 UNK        -0.5274 
     30 CA        -71.4542   26.1775  -76.7162 C.3       8 UNK         0.0270 
     31 CB        -71.0501   25.3340  -75.4950 C.3       8 UNK        -0.1976 
     32 N         -72.8168   25.8114  -77.1122 N.am      8 UNK        -0.4313 
     33 C         -73.3949   26.1060  -78.2848 C.2       8 UNK         0.5041 
     34 O         -72.8088   26.6516  -79.2201 O.2       8 UNK        -0.5577 
     35 CA        -74.8967   25.7849  -78.4135 C.3       7 UNK         0.0284 
     36 CB        -75.1078   24.3351  -78.8756 C.3       7 UNK        -0.1958 
     37 N         -75.6415   26.0294  -77.1711 N.am      7 UNK        -0.4454 
     38 C         -75.7640   27.2327  -76.5893 C.2       7 UNK         0.5089 
     39 O         -75.2987   28.2700  -77.0592 O.2       7 UNK        -0.5125 
     40 CA        -76.4656   27.2864  -75.2275 C.3       6 UNK         0.0408 
     41 CB        -77.9845   27.3480  -75.3915 C.3       6 UNK        -0.1791 
     42 N         -76.1005   26.1510  -74.3859 N.am      6 UNK        -0.4762 
     43 C         -74.9276   26.0333  -73.7479 C.2       6 UNK         0.5007 
     44 O         -74.0530   26.9025  -73.7610 O.2       6 UNK        -0.5032 
     45 CA        -74.6684   24.6987  -73.0160 C.3       5 UNK         0.0783 
     46 C46       -75.1467   24.7160  -71.5417 C.3       11 UNK        -0.0857 
     47 S47       -76.9652   24.6199  -71.3349 S.3       11 UNK        -0.2512 
     48 C48       -77.3058   25.9686  -70.1576 C.3       11 UNK         0.0225 
     49 N         -75.2093   23.5467  -73.7434 N.am      5 UNK        -0.4615 
     50 C         -74.8021   23.1446  -74.9524 C.2       4 UNK         0.5053 
     51 O         -73.8857   23.6782  -75.5737 O.2       4 UNK        -0.5105 
     52 CA        -75.5625   21.9741  -75.5946 C.3       4 UNK         0.0263 
     53 CB        -74.8812   20.6414  -75.2464 C.3       4 UNK        -0.1981 
     54 N         -76.9819   21.9064  -75.2321 N.am      4 UNK        -0.4224 
     55 C         -77.9000   22.8481  -75.4949 C.2       3 UNK         0.4895 
     56 O         -77.6376   23.9290  -76.0285 O.2       3 UNK        -0.5091 
     57 CA        -79.3426   22.4760  -75.1078 C.3       3 UNK         0.0250 
     58 CB        -79.5031   22.2895  -73.5822 C.3       3 UNK        -0.1996 
     59 N         -80.3608   23.3784  -75.6662 N.am      3 UNK        -0.4254 
     60 C         -80.7289   24.5987  -75.2468 C.2       2 UNK         0.5004 
     61 O         -80.2522   25.1791  -74.2699 O.2       2 UNK        -0.5226 
     62 CA        -81.8850   25.2414  -76.0374 C.3       2 UNK         0.0269 
     63 CB        -83.2030   24.4858  -75.7868 C.3       2 UNK        -0.1926 
     64 N         -82.0919   26.6435  -75.6712 N.am      2 UNK        -0.4687 
     65 C         -81.4655   27.6857  -76.2299 C.2       1 UNK         0.5165 
     66 O         -80.6722   27.5845  -77.1658 O.2       1 UNK        -0.5079 
     67 H67       -83.2097   29.6861  -78.1353 H         1 UNK         0.0900 
     68 H68       -83.7606   28.0025  -78.0675 H         1 UNK         0.0900 
     69 H69       -84.9022   29.3019  -78.3907 H         1 UNK         0.0900 
     70 H70       -83.5171   29.3088  -74.4602 H         1 UNK         0.2959 
     71 H71       -81.6009   29.7881  -76.5078 H         1 UNK         0.1079 
     72 H72       -81.1028   30.5904  -74.3373 H         1 UNK         0.0837 
     73 H73       -79.9352   29.3483  -74.6581 H         1 UNK         0.0837 
     74 H74       -80.9478   29.5203  -70.7286 H         1 UNK         0.0685 
     75 H75       -80.4599   30.6640  -71.9501 H         1 UNK         0.0685 
     76 H76       -79.6820   27.2447  -70.6177 H         1 UNK         0.1434 
     77 H77       -75.4727   27.6508  -71.2338 H         1 UNK         0.1329 
     78 H78       -78.1327   30.7236  -72.5862 H         1 UNK         0.1335 
     79 H79       -74.9622   29.4177  -73.2760 H         1 UNK         0.0680 
     80 H80       -75.8344   30.9116  -73.1088 H         1 UNK         0.0680 
     81 H81       -73.4980   28.3202  -71.4525 H         1 UNK         0.1032 
     82 H82       -72.6870   29.2322  -70.2156 H         1 UNK         0.1032 
     83 H83       -71.4983   30.5487  -72.0308 H         1 UNK         0.0461 
     84 H84       -69.5603   29.9679  -71.0365 H         1 UNK         0.3453 
     85 H85       -68.8785   28.3636  -71.1052 H         1 UNK         0.3453 
     86 H86       -72.8685   28.6036  -73.8191 H         1 UNK         0.2984 
     87 H87       -73.5044   30.1171  -75.9669 H         1 UNK         0.0554 
     88 H88       -71.9785   31.7824  -76.9578 H         1 UNK         0.0847 
     89 H89       -72.2529   30.4766  -78.0990 H         1 UNK         0.0847 
     90 H90       -70.7366   30.5648  -77.2033 H         1 UNK         0.0847 
     91 H91       -73.2649   27.9965  -76.4782 H         1 UNK         0.3141 
     92 H92       -70.7838   25.9287  -77.5414 H         1 UNK         0.0743 
     93 H93       -70.0223   25.5430  -75.1952 H         1 UNK         0.0784 
     94 H94       -71.6870   25.5440  -74.6346 H         1 UNK         0.0784 
     95 H95       -71.1143   24.2669  -75.7086 H         1 UNK         0.0784 
     96 H96       -73.3475   25.2594  -76.4412 H         1 UNK         0.3213 
     97 H97       -75.3120   26.4477  -79.1757 H         1 UNK         0.0855 
     98 H98       -74.6288   23.6237  -78.2039 H         1 UNK         0.0814 
     99 H99       -74.6781   24.1802  -79.8660 H         1 UNK         0.0814 
    100 H100      -76.1668   24.0834  -78.9373 H         1 UNK         0.0814 
    101 H101      -76.0924   25.2349  -76.7295 H         1 UNK         0.3105 
    102 H102      -76.1558   28.2040  -74.7294 H         1 UNK         0.0547 
    103 H103      -78.3723   26.4775  -75.9200 H         1 UNK         0.0837 
    104 H104      -78.2709   28.2294  -75.9653 H         1 UNK         0.0837 
    105 H105      -78.4856   27.4034  -74.4244 H         1 UNK         0.0837 
    106 H106      -76.7577   25.3825  -74.3488 H         1 UNK         0.3020 
    107 H107      -73.5823   24.5787  -73.0006 H         1 UNK         0.1245 
    108 H108      -74.7400   25.5797  -71.0161 H         1 UNK         0.0781 
    109 H109      -74.7245   23.8527  -71.0251 H         1 UNK         0.0781 
    110 H110      -76.4881   26.0594  -69.4411 H         1 UNK         0.0836 
    111 H111      -78.1840   25.6944  -69.5712 H         1 UNK         0.0836 
    112 H112      -75.9811   23.0672  -73.3034 H         1 UNK         0.3022 
    113 H113      -75.5125   22.1057  -76.6763 H         1 UNK         0.0747 
    114 H114      -75.3431   19.8080  -75.7761 H         1 UNK         0.0793 
    115 H115      -73.8274   20.6569  -75.5291 H         1 UNK         0.0793 
    116 H116      -74.9285   20.4295  -74.1774 H         1 UNK         0.0793 
    117 H117      -77.2873   21.0483  -74.7956 H         1 UNK         0.3047 
    118 H118      -79.5421   21.5100  -75.5745 H         1 UNK         0.0822 
    119 H119      -80.5377   22.0736  -73.3153 H         1 UNK         0.0807 
    120 H120      -79.1933   23.1759  -73.0278 H         1 UNK         0.0807 
    121 H121      -78.8996   21.4585  -73.2165 H         1 UNK         0.0807 
    122 H122      -80.8174   23.0216  -76.4940 H         1 UNK         0.2946 
    123 H123      -81.6417   25.1809  -77.1010 H         1 UNK         0.1144 
    124 H124      -84.0278   24.9344  -76.3411 H         1 UNK         0.0793 
    125 H125      -83.4717   24.4858  -74.7295 H         1 UNK         0.0793 
    126 H126      -83.1342   23.4449  -76.1048 H         1 UNK         0.0793 
    127 H127      -82.6840   26.8209  -74.8725 H         1 UNK         0.2896 
@<TRIPOS>BOND
     1    1    2 1    
     2    1   67 1    
     3    1   68 1    
     4    1   69 1    
     5    2    3 2    
     6    2    4 am   BACKBONE|DICT|INTERRES
     7    4    5 1    
     8    4   70 1    
     9    5    6 1    
    10    5   65 1    
    11    5   71 1    
    12    6    7 1    
    13    6   72 1    
    14    6   73 1    
    15    7    8 1    
    16    8    9 1    
    17    8   74 1    
    18    8   75 1    
    19    9   10 ar   
    20    9   14 ar   
    21   10   11 ar   
    22   10   76 1    
    23   11   12 ar   
    24   11   48 1    
    25   12   13 ar   
    26   12   77 1    
    27   13   14 ar   
    28   13   15 1    
    29   14   78 1    
    30   15   16 1    
    31   15   79 1    
    32   15   80 1    
    33   16   17 1    
    34   17   18 1    
    35   17   81 1    
    36   17   82 1    
    37   18   19 1    
    38   18   22 1    
    39   18   83 1    
    40   19   20 am   BACKBONE|DICT|INTERRES
    41   19   21 2    
    42   20   84 1    
    43   20   85 1    
    44   22   23 am   BACKBONE|DICT|INTERRES
    45   22   86 1    
    46   23   24 2    
    47   23   25 1    
    48   25   26 1    
    49   25   27 1    
    50   25   87 1    
    51   26   88 1    
    52   26   89 1    
    53   26   90 1    
    54   27   28 am   BACKBONE|DICT|INTERRES
    55   27   91 1    
    56   28   29 2    
    57   28   30 1    
    58   30   31 1    
    59   30   32 1    
    60   30   92 1    
    61   31   93 1    
    62   31   94 1    
    63   31   95 1    
    64   32   33 am   BACKBONE|DICT|INTERRES
    65   32   96 1    
    66   33   34 2    
    67   33   35 1    
    68   35   36 1    
    69   35   37 1    
    70   35   97 1    
    71   36   98 1    
    72   36   99 1    
    73   36  100 1    
    74   37   38 am   BACKBONE|DICT|INTERRES
    75   37  101 1    
    76   38   39 2    
    77   38   40 1    
    78   40   41 1    
    79   40   42 1    
    80   40  102 1    
    81   41  103 1    
    82   41  104 1    
    83   41  105 1    
    84   42   43 am   BACKBONE|DICT|INTERRES
    85   42  106 1    
    86   43   44 2    
    87   43   45 1    
    88   45   46 1    
    89   45   49 1    
    90   45  107 1    
    91   46   47 1    
    92   46  108 1    
    93   46  109 1    
    94   47   48 1    
    95   48  110 1    
    96   48  111 1    
    97   49   50 am   BACKBONE|DICT|INTERRES
    98   49  112 1    
    99   50   51 2    
   100   50   52 1    
   101   52   53 1    
   102   52   54 1    
   103   52  113 1    
   104   53  114 1    
   105   53  115 1    
   106   53  116 1    
   107   54   55 am   BACKBONE|DICT|INTERRES
   108   54  117 1    
   109   55   56 2    
   110   55   57 1    
   111   57   58 1    
   112   57   59 1    
   113   57  118 1    
   114   58  119 1    
   115   58  120 1    
   116   58  121 1    
   117   59   60 am   BACKBONE|DICT|INTERRES
   118   59  122 1    
   119   60   61 2    
   120   60   62 1    
   121   62   63 1    
   122   62   64 1    
   123   62  123 1    
   124   63  124 1    
   125   63  125 1    
   126   63  126 1    
   127   64   65 am   BACKBONE|DICT|INTERRES
   128   64  127 1    
   129   65   66 2    
@<TRIPOS>SUBSTRUCTURE
     1 UNK         1 GROUP             0       ****    0 ROOT    
