@<TRIPOS>MOLECULE
3R135
127   129    1
SMALL
USER_CHARGES


@<TRIPOS>ATOM
      1 CA        -80.0069   21.7666  -71.8898 C.3       0 UNK        -0.1998 
      2 C         -80.8924   22.8890  -72.4083 C.2       0 UNK         0.4909 
      3 O         -81.5513   22.7262  -73.4359 O.2       0 UNK        -0.5240 
      4 N         -80.9012   24.0304  -71.7090 N.am      1 UNK        -0.4739 
      5 CA        -81.6314   25.2591  -72.0435 C.3       1 UNK         0.0864 
      6 C6        -81.5049   26.3452  -70.9364 C.3       11 UNK        -0.0881 
      7 S7        -79.8744   26.4246  -70.1053 S.3       11 UNK        -0.2682 
      8 C8        -79.6056   28.2141  -69.9221 C.3       11 UNK         0.0289 
      9 C9        -78.7979   28.7954  -71.0728 C.ar      11 UNK        -0.0687 
     10 C10       -79.4107   29.5848  -72.0505 C.ar      11 UNK        -0.0823 
     11 C11       -78.6520   30.1758  -73.0678 C.ar      11 UNK        -0.0830 
     12 C12       -77.2658   29.9798  -73.0880 C.ar      11 UNK        -0.1021 
     13 C13       -76.6511   29.1459  -72.1501 C.ar      11 UNK        -0.0753 
     14 C14       -77.4208   28.5661  -71.1388 C.ar      11 UNK        -0.0933 
     15 C15       -75.1701   28.8193  -72.2590 C.3       11 UNK         0.0166 
     16 S16       -74.1723   29.6882  -71.0101 S.3       11 UNK        -0.2615 
     17 C17       -72.5541   28.8921  -71.2952 C.3       11 UNK        -0.0865 
     18 CA        -71.5483   29.8160  -72.0537 C.3       10 UNK         0.0862 
     19 C         -70.5231   30.5282  -71.1220 C.2       10 UNK         0.5551 
     20 N         -70.9745   31.0635  -69.9957 N.am      10 UNK        -0.7319 
     21 O         -69.3348   30.6377  -71.4205 O.2       10 UNK        -0.5018 
     22 N         -70.9373   29.1457  -73.2110 N.am      10 UNK        -0.4509 
     23 C         -70.2122   28.0198  -73.2050 C.2       10 UNK         0.4899 
     24 O         -69.9375   27.3873  -72.1836 O.2       10 UNK        -0.4839 
     25 CA        -69.7695   27.4911  -74.5868 C.3       9 UNK         0.0222 
     26 CB        -69.1291   26.0925  -74.5120 C.3       9 UNK        -0.1966 
     27 N         -70.9019   27.4437  -75.5182 N.am      9 UNK        -0.4218 
     28 C         -71.3820   28.4726  -76.2222 C.2       9 UNK         0.5020 
     29 O         -70.8323   29.5762  -76.2285 O.2       9 UNK        -0.5274 
     30 CA        -72.7184   28.2873  -76.9788 C.3       8 UNK         0.0270 
     31 CB        -72.9113   29.3716  -78.0575 C.3       8 UNK        -0.1976 
     32 N         -72.9884   26.9813  -77.5962 N.am      8 UNK        -0.4313 
     33 C         -73.1029   25.7771  -77.0195 C.2       8 UNK         0.5041 
     34 O         -72.7581   25.5226  -75.8642 O.2       8 UNK        -0.5577 
     35 CA        -73.7590   24.6841  -77.8853 C.3       7 UNK         0.0284 
     36 CB        -73.7704   23.3088  -77.1926 C.3       7 UNK        -0.1958 
     37 N         -75.1367   25.0588  -78.2217 N.am      7 UNK        -0.4454 
     38 C         -75.4853   25.9058  -79.2004 C.2       7 UNK         0.5089 
     39 O         -74.6741   26.4122  -79.9774 O.2       7 UNK        -0.5125 
     40 CA        -76.9698   26.2979  -79.2923 C.3       6 UNK         0.0408 
     41 CB        -77.8185   25.1372  -79.8350 C.3       6 UNK        -0.1791 
     42 N         -77.5027   26.7501  -78.0047 N.am      6 UNK        -0.4762 
     43 C         -77.1321   27.8767  -77.3757 C.2       6 UNK         0.5007 
     44 O         -76.3587   28.7021  -77.8603 O.2       6 UNK        -0.5032 
     45 CA        -77.6908   28.1110  -75.9570 C.3       5 UNK         0.0783 
     46 C46       -79.0520   28.8565  -75.9612 C.3       11 UNK        -0.0857 
     47 S47       -78.8195   30.6630  -75.8461 S.3       11 UNK        -0.2512 
     48 C48       -79.3446   31.0269  -74.1313 C.3       11 UNK         0.0225 
     49 N         -77.7437   26.8745  -75.1785 N.am      5 UNK        -0.4615 
     50 C         -76.6666   26.2186  -74.7287 C.2       4 UNK         0.5053 
     51 O         -75.5187   26.6443  -74.8318 O.2       4 UNK        -0.5105 
     52 CA        -76.9073   24.8443  -74.0825 C.3       4 UNK         0.0263 
     53 CB        -77.1089   24.9796  -72.5647 C.3       4 UNK        -0.1981 
     54 N         -78.0555   24.1552  -74.6783 N.am      4 UNK        -0.4224 
     55 C         -78.0576   23.6269  -75.9115 C.2       3 UNK         0.4895 
     56 O         -77.0684   23.5943  -76.6425 O.2       3 UNK        -0.5091 
     57 CA        -79.3982   23.0932  -76.4428 C.3       3 UNK         0.0250 
     58 CB        -79.6074   21.6276  -76.0328 C.3       3 UNK        -0.1996 
     59 N         -80.5352   23.9094  -76.0064 N.am      3 UNK        -0.4254 
     60 C         -80.7747   25.1480  -76.4657 C.2       2 UNK         0.5004 
     61 O         -80.0941   25.6914  -77.3338 O.2       2 UNK        -0.5226 
     62 CA        -81.9284   25.9410  -75.8259 C.3       2 UNK         0.0269 
     63 CB        -83.2301   25.7253  -76.6131 C.3       2 UNK        -0.1926 
     64 N         -82.1524   25.6198  -74.4137 N.am      2 UNK        -0.4687 
     65 C         -81.2447   25.7833  -73.4410 C.2       1 UNK         0.5165 
     66 O         -80.1277   26.2623  -73.6337 O.2       1 UNK        -0.5079 
     67 H67       -80.5590   20.8273  -71.8777 H         1 UNK         0.0900 
     68 H68       -79.1369   21.6440  -72.5340 H         1 UNK         0.0900 
     69 H69       -79.6548   21.9636  -70.8773 H         1 UNK         0.0900 
     70 H70       -80.3114   24.1157  -70.8923 H         1 UNK         0.2959 
     71 H71       -82.6871   24.9826  -72.0893 H         1 UNK         0.1079 
     72 H72       -82.2382   26.1371  -70.1558 H         1 UNK         0.0837 
     73 H73       -81.7746   27.3297  -71.3241 H         1 UNK         0.0837 
     74 H74       -80.5605   28.7298  -69.8096 H         1 UNK         0.0685 
     75 H75       -79.0633   28.3859  -68.9912 H         1 UNK         0.0685 
     76 H76       -80.4791   29.7468  -72.0114 H         1 UNK         0.1434 
     77 H77       -76.6706   30.4426  -73.8628 H         1 UNK         0.1329 
     78 H78       -76.9470   27.9324  -70.4016 H         1 UNK         0.1335 
     79 H79       -74.7939   29.0644  -73.2538 H         1 UNK         0.0680 
     80 H80       -75.0423   27.7420  -72.1426 H         1 UNK         0.0680 
     81 H81       -72.1497   28.5582  -70.3377 H         1 UNK         0.1032 
     82 H82       -72.7234   27.9676  -71.8490 H         1 UNK         0.1032 
     83 H83       -72.1068   30.6324  -72.5132 H         1 UNK         0.0461 
     84 H84       -70.3321   31.5428  -69.3843 H         1 UNK         0.3453 
     85 H85       -71.9518   31.0016  -69.7533 H         1 UNK         0.3453 
     86 H86       -71.0558   29.6118  -74.1027 H         1 UNK         0.2984 
     87 H87       -69.0159   28.1812  -74.9714 H         1 UNK         0.0554 
     88 H88       -68.2553   26.0950  -73.8590 H         1 UNK         0.0847 
     89 H89       -68.7965   25.7561  -75.4941 H         1 UNK         0.0847 
     90 H90       -69.8277   25.3505  -74.1230 H         1 UNK         0.0847 
     91 H91       -71.4735   26.5953  -75.5147 H         1 UNK         0.3141 
     92 H92       -73.5007   28.4307  -76.2304 H         1 UNK         0.0743 
     93 H93       -72.1313   29.3213  -78.8183 H         1 UNK         0.0784 
     94 H94       -73.8730   29.2730  -78.5605 H         1 UNK         0.0784 
     95 H95       -72.8836   30.3725  -77.6245 H         1 UNK         0.0784 
     96 H96       -73.3185   27.0281  -78.5548 H         1 UNK         0.3213 
     97 H97       -73.1744   24.5905  -78.8033 H         1 UNK         0.0855 
     98 H98       -74.3285   23.3347  -76.2557 H         1 UNK         0.0814 
     99 H99       -72.7568   22.9800  -76.9602 H         1 UNK         0.0814 
    100 H100      -74.2221   22.5476  -77.8287 H         1 UNK         0.0814 
    101 H101      -75.8641   24.6832  -77.6165 H         1 UNK         0.3105 
    102 H102      -77.0523   27.1286  -79.9962 H         1 UNK         0.0547 
    103 H103      -77.4570   24.8146  -80.8122 H         1 UNK         0.0837 
    104 H104      -77.7929   24.2696  -79.1761 H         1 UNK         0.0837 
    105 H105      -78.8609   25.4323  -79.9561 H         1 UNK         0.0837 
    106 H106      -78.2229   26.1734  -77.5787 H         1 UNK         0.3020 
    107 H107      -76.9503   28.7382  -75.4595 H         1 UNK         0.1245 
    108 H108      -79.6684   28.5402  -75.1183 H         1 UNK         0.0781 
    109 H109      -79.6408   28.6236  -76.8508 H         1 UNK         0.0781 
    110 H110      -80.4271   30.9016  -74.0753 H         1 UNK         0.0836 
    111 H111      -79.1472   32.0786  -73.9203 H         1 UNK         0.0836 
    112 H112      -78.6623   26.5188  -74.9366 H         1 UNK         0.3022 
    113 H113      -76.0163   24.2364  -74.2548 H         1 UNK         0.0747 
    114 H114      -77.2750   24.0104  -72.0946 H         1 UNK         0.0793 
    115 H115      -76.2291   25.4221  -72.0961 H         1 UNK         0.0793 
    116 H116      -77.9564   25.6212  -72.3237 H         1 UNK         0.0793 
    117 H117      -78.9275   24.2093  -74.1720 H         1 UNK         0.3047 
    118 H118      -79.3575   23.1298  -77.5337 H         1 UNK         0.0822 
    119 H119      -80.5378   21.2309  -76.4395 H         1 UNK         0.0807 
    120 H120      -79.6371   21.5061  -74.9507 H         1 UNK         0.0807 
    121 H121      -78.7969   21.0008  -76.4073 H         1 UNK         0.0807 
    122 H122      -81.1157   23.5351  -75.2612 H         1 UNK         0.2946 
    123 H123      -81.6631   26.9988  -75.8858 H         1 UNK         0.1144 
    124 H124      -83.5627   24.6875  -76.5677 H         1 UNK         0.0793 
    125 H125      -83.0954   25.9789  -77.6658 H         1 UNK         0.0793 
    126 H126      -84.0345   26.3542  -76.2312 H         1 UNK         0.0793 
    127 H127      -83.0313   25.1755  -74.1883 H         1 UNK         0.2896 
@<TRIPOS>BOND
     1    1    2 1    
     2    1   67 1    
     3    1   68 1    
     4    1   69 1    
     5    2    3 2    
     6    2    4 am   BACKBONE|DICT|INTERRES
     7    4    5 1    
     8    4   70 1    
     9    5    6 1    
    10    5   65 1    
    11    5   71 1    
    12    6    7 1    
    13    6   72 1    
    14    6   73 1    
    15    7    8 1    
    16    8    9 1    
    17    8   74 1    
    18    8   75 1    
    19    9   10 ar   
    20    9   14 ar   
    21   10   11 ar   
    22   10   76 1    
    23   11   12 ar   
    24   11   48 1    
    25   12   13 ar   
    26   12   77 1    
    27   13   14 ar   
    28   13   15 1    
    29   14   78 1    
    30   15   16 1    
    31   15   79 1    
    32   15   80 1    
    33   16   17 1    
    34   17   18 1    
    35   17   81 1    
    36   17   82 1    
    37   18   19 1    
    38   18   22 1    
    39   18   83 1    
    40   19   20 am   BACKBONE|DICT|INTERRES
    41   19   21 2    
    42   20   84 1    
    43   20   85 1    
    44   22   23 am   BACKBONE|DICT|INTERRES
    45   22   86 1    
    46   23   24 2    
    47   23   25 1    
    48   25   26 1    
    49   25   27 1    
    50   25   87 1    
    51   26   88 1    
    52   26   89 1    
    53   26   90 1    
    54   27   28 am   BACKBONE|DICT|INTERRES
    55   27   91 1    
    56   28   29 2    
    57   28   30 1    
    58   30   31 1    
    59   30   32 1    
    60   30   92 1    
    61   31   93 1    
    62   31   94 1    
    63   31   95 1    
    64   32   33 am   BACKBONE|DICT|INTERRES
    65   32   96 1    
    66   33   34 2    
    67   33   35 1    
    68   35   36 1    
    69   35   37 1    
    70   35   97 1    
    71   36   98 1    
    72   36   99 1    
    73   36  100 1    
    74   37   38 am   BACKBONE|DICT|INTERRES
    75   37  101 1    
    76   38   39 2    
    77   38   40 1    
    78   40   41 1    
    79   40   42 1    
    80   40  102 1    
    81   41  103 1    
    82   41  104 1    
    83   41  105 1    
    84   42   43 am   BACKBONE|DICT|INTERRES
    85   42  106 1    
    86   43   44 2    
    87   43   45 1    
    88   45   46 1    
    89   45   49 1    
    90   45  107 1    
    91   46   47 1    
    92   46  108 1    
    93   46  109 1    
    94   47   48 1    
    95   48  110 1    
    96   48  111 1    
    97   49   50 am   BACKBONE|DICT|INTERRES
    98   49  112 1    
    99   50   51 2    
   100   50   52 1    
   101   52   53 1    
   102   52   54 1    
   103   52  113 1    
   104   53  114 1    
   105   53  115 1    
   106   53  116 1    
   107   54   55 am   BACKBONE|DICT|INTERRES
   108   54  117 1    
   109   55   56 2    
   110   55   57 1    
   111   57   58 1    
   112   57   59 1    
   113   57  118 1    
   114   58  119 1    
   115   58  120 1    
   116   58  121 1    
   117   59   60 am   BACKBONE|DICT|INTERRES
   118   59  122 1    
   119   60   61 2    
   120   60   62 1    
   121   62   63 1    
   122   62   64 1    
   123   62  123 1    
   124   63  124 1    
   125   63  125 1    
   126   63  126 1    
   127   64   65 am   BACKBONE|DICT|INTERRES
   128   64  127 1    
   129   65   66 2    
@<TRIPOS>SUBSTRUCTURE
     1 UNK         1 GROUP             0       ****    0 ROOT    
