@<TRIPOS>MOLECULE
3R135
127   129    1
SMALL
USER_CHARGES


@<TRIPOS>ATOM
      1 CA        -73.3666   25.9154  -69.5991 C.3       0 UNK        -0.1998 
      2 C         -74.8503   25.5823  -69.5692 C.2       0 UNK         0.4909 
      3 O         -75.2422   24.5960  -68.9451 O.2       0 UNK        -0.5240 
      4 N         -75.6779   26.4037  -70.2310 N.am      1 UNK        -0.4739 
      5 CA        -77.1352   26.2397  -70.3190 C.3       1 UNK         0.0864 
      6 C6        -77.8085   27.5052  -70.9106 C.3       11 UNK        -0.0881 
      7 S7        -79.5696   27.6324  -70.4570 S.3       11 UNK        -0.2682 
      8 C8        -79.8786   29.4111  -70.6879 C.3       11 UNK         0.0289 
      9 C9        -79.7856   29.8375  -72.1477 C.ar      11 UNK        -0.0687 
     10 C10       -80.6937   29.3371  -73.0868 C.ar      11 UNK        -0.0823 
     11 C11       -80.6529   29.7663  -74.4168 C.ar      11 UNK        -0.0830 
     12 C12       -79.6864   30.6991  -74.8062 C.ar      11 UNK        -0.1021 
     13 C13       -78.7759   31.2122  -73.8765 C.ar      11 UNK        -0.0753 
     14 C14       -78.8276   30.7738  -72.5495 C.ar      11 UNK        -0.0933 
     15 C15       -77.7807   32.2838  -74.3003 C.3       11 UNK         0.0166 
     16 S16       -76.1574   31.5838  -74.7256 S.3       11 UNK        -0.2615 
     17 C17       -75.2370   31.8223  -73.1641 C.3       11 UNK        -0.0865 
     18 CA        -73.9927   30.9005  -73.0711 C.3       10 UNK         0.0862 
     19 C         -73.1013   31.2458  -71.8420 C.2       10 UNK         0.5551 
     20 N         -72.6859   30.2811  -71.0296 N.am      10 UNK        -0.7319 
     21 O         -72.7699   32.4096  -71.6273 O.2       10 UNK        -0.5018 
     22 N         -74.3840   29.4832  -73.1470 N.am      10 UNK        -0.4509 
     23 C         -73.7386   28.5464  -73.8480 C.2       10 UNK         0.4899 
     24 O         -72.6970   28.7483  -74.4765 O.2       10 UNK        -0.4839 
     25 CA        -74.4263   27.1689  -73.8825 C.3       9 UNK         0.0222 
     26 CB        -75.7594   27.2711  -74.6399 C.3       9 UNK        -0.1966 
     27 N         -73.5878   26.1499  -74.5175 N.am      9 UNK        -0.4218 
     28 C         -72.5351   25.5643  -73.9274 C.2       9 UNK         0.5020 
     29 O         -72.2278   25.7485  -72.7487 O.2       9 UNK        -0.5274 
     30 CA        -71.6814   24.6013  -74.7738 C.3       8 UNK         0.0270 
     31 CB        -72.0178   23.1387  -74.4393 C.3       8 UNK        -0.1976 
     32 N         -71.8299   24.8063  -76.2156 N.am      8 UNK        -0.4313 
     33 C         -71.2844   25.8120  -76.9115 C.2       8 UNK         0.5041 
     34 O         -70.5294   26.6552  -76.4267 O.2       8 UNK        -0.5577 
     35 CA        -71.6401   25.8933  -78.4075 C.3       7 UNK         0.0284 
     36 CB        -71.8052   24.5071  -79.0719 C.3       7 UNK        -0.1958 
     37 N         -72.8138   26.7377  -78.6658 N.am      7 UNK        -0.4454 
     38 C         -74.0569   26.5700  -78.1938 C.2       7 UNK         0.5089 
     39 O         -74.3833   25.6806  -77.3989 O.2       7 UNK        -0.5125 
     40 CA        -75.1204   27.5516  -78.7101 C.3       6 UNK         0.0408 
     41 CB        -75.3196   27.4222  -80.2331 C.3       6 UNK        -0.1791 
     42 N         -76.3705   27.2515  -78.0249 N.am      6 UNK        -0.4762 
     43 C         -77.4413   28.0420  -77.8892 C.2       6 UNK         0.5007 
     44 O         -77.5116   29.1760  -78.3658 O.2       6 UNK        -0.5032 
     45 CA        -78.6192   27.4537  -77.0725 C.3       5 UNK         0.0783 
     46 C46       -79.9720   28.1571  -77.3628 C.3       11 UNK        -0.0857 
     47 S47       -81.2561   27.6719  -76.1598 S.3       11 UNK        -0.2512 
     48 C48       -81.6973   29.2717  -75.4099 C.3       11 UNK         0.0225 
     49 N         -78.6919   25.9859  -77.1837 N.am      5 UNK        -0.4615 
     50 C         -78.8928   25.2830  -78.3127 C.2       4 UNK         0.5053 
     51 O         -79.0814   25.7935  -79.4172 O.2       4 UNK        -0.5105 
     52 CA        -78.8408   23.7466  -78.2152 C.3       4 UNK         0.0263 
     53 CB        -77.4432   23.2430  -78.6153 C.3       4 UNK        -0.1981 
     54 N         -79.1660   23.2361  -76.8840 N.am      4 UNK        -0.4224 
     55 C         -80.3714   23.3124  -76.3039 C.2       3 UNK         0.4895 
     56 O         -81.3852   23.7015  -76.8845 O.2       3 UNK        -0.5091 
     57 CA        -80.4687   22.8953  -74.8233 C.3       3 UNK         0.0250 
     58 CB        -81.2082   21.5533  -74.6911 C.3       3 UNK        -0.1996 
     59 N         -79.1876   22.8056  -74.1073 N.am      3 UNK        -0.4254 
     60 C         -78.3334   23.8180  -73.9008 C.2       2 UNK         0.5004 
     61 O         -78.4625   24.9417  -74.3935 O.2       2 UNK        -0.5226 
     62 CA        -77.0989   23.5045  -73.0392 C.3       2 UNK         0.0269 
     63 CB        -75.8769   23.2055  -73.9223 C.3       2 UNK        -0.1926 
     64 N         -76.7892   24.6172  -72.1407 N.am      2 UNK        -0.4687 
     65 C         -77.5494   24.9669  -71.0920 C.2       1 UNK         0.5165 
     66 O         -78.5280   24.3176  -70.7173 O.2       1 UNK        -0.5079 
     67 H67       -72.8037   25.0760  -70.0076 H         1 UNK         0.0900 
     68 H68       -73.0039   26.1120  -68.5902 H         1 UNK         0.0900 
     69 H69       -73.1553   26.7903  -70.2141 H         1 UNK         0.0900 
     70 H70       -75.2957   27.2170  -70.6876 H         1 UNK         0.2959 
     71 H71       -77.4907   26.1136  -69.2933 H         1 UNK         0.1079 
     72 H72       -77.3100   28.4001  -70.5346 H         1 UNK         0.0837 
     73 H73       -77.7170   27.5398  -71.9977 H         1 UNK         0.0837 
     74 H74       -80.8784   29.6422  -70.3177 H         1 UNK         0.0685 
     75 H75       -79.1852   29.9798  -70.0661 H         1 UNK         0.0685 
     76 H76       -81.4450   28.6240  -72.7754 H         1 UNK         0.1434 
     77 H77       -79.6595   31.0512  -75.8283 H         1 UNK         0.1329 
     78 H78       -78.1401   31.1824  -71.8228 H         1 UNK         0.1335 
     79 H79       -78.1619   32.8184  -75.1717 H         1 UNK         0.0680 
     80 H80       -77.6746   33.0340  -73.5150 H         1 UNK         0.0680 
     81 H81       -75.8980   31.6496  -72.3141 H         1 UNK         0.1032 
     82 H82       -74.9436   32.8728  -73.1133 H         1 UNK         0.1032 
     83 H83       -73.3696   31.1339  -73.9369 H         1 UNK         0.0461 
     84 H84       -72.1047   30.5161  -70.2402 H         1 UNK         0.3453 
     85 H85       -72.9184   29.3206  -71.2204 H         1 UNK         0.3453 
     86 H86       -75.2467   29.2466  -72.6811 H         1 UNK         0.2984 
     87 H87       -74.6291   26.8548  -72.8577 H         1 UNK         0.0554 
     88 H88       -76.1840   26.2937  -74.8663 H         1 UNK         0.0847 
     89 H89       -75.6236   27.8084  -75.5772 H         1 UNK         0.0847 
     90 H90       -76.5045   27.8224  -74.0656 H         1 UNK         0.0847 
     91 H91       -73.7567   25.9644  -75.5012 H         1 UNK         0.3141 
     92 H92       -70.6376   24.7790  -74.5062 H         1 UNK         0.0743 
     93 H93       -73.0277   22.8740  -74.7528 H         1 UNK         0.0784 
     94 H94       -71.3261   22.4531  -74.9293 H         1 UNK         0.0784 
     95 H95       -71.9479   22.9545  -73.3661 H         1 UNK         0.0784 
     96 H96       -72.4788   24.2010  -76.6995 H         1 UNK         0.3213 
     97 H97       -70.7950   26.3836  -78.8941 H         1 UNK         0.0855 
     98 H98       -70.9430   23.8702  -78.8690 H         1 UNK         0.0814 
     99 H99       -71.8826   24.6028  -80.1549 H         1 UNK         0.0814 
    100 H100      -72.6941   23.9774  -78.7285 H         1 UNK         0.0814 
    101 H101      -72.6450   27.5275  -79.2736 H         1 UNK         0.3105 
    102 H102      -74.8061   28.5659  -78.4567 H         1 UNK         0.0547 
    103 H103      -74.4061   27.6594  -80.7788 H         1 UNK         0.0837 
    104 H104      -75.6156   26.4102  -80.5129 H         1 UNK         0.0837 
    105 H105      -76.0902   28.1037  -80.5935 H         1 UNK         0.0837 
    106 H106      -76.3664   26.3458  -77.5705 H         1 UNK         0.3020 
    107 H107      -78.3694   27.6627  -76.0306 H         1 UNK         0.1245 
    108 H108      -80.3267   27.9208  -78.3668 H         1 UNK         0.0781 
    109 H109      -79.8598   29.2411  -77.3379 H         1 UNK         0.0781 
    110 H110      -82.6553   29.1603  -74.8995 H         1 UNK         0.0836 
    111 H111      -81.8651   30.0118  -76.1940 H         1 UNK         0.0836 
    112 H112      -78.5881   25.4846  -76.3055 H         1 UNK         0.3022 
    113 H113      -79.5705   23.3446  -78.9214 H         1 UNK         0.0747 
    114 H114      -77.3997   22.1538  -78.6237 H         1 UNK         0.0793 
    115 H115      -77.1783   23.5836  -79.6174 H         1 UNK         0.0793 
    116 H116      -76.6708   23.6063  -77.9353 H         1 UNK         0.0793 
    117 H117      -78.3984   22.8883  -76.3295 H         1 UNK         0.3047 
    118 H118      -81.0629   23.6633  -74.3232 H         1 UNK         0.0822 
    119 H119      -81.3837   21.2964  -73.6462 H         1 UNK         0.0807 
    120 H120      -80.6485   20.7374  -75.1501 H         1 UNK         0.0807 
    121 H121      -82.1836   21.5933  -75.1786 H         1 UNK         0.0807 
    122 H122      -78.9827   21.9109  -73.6851 H         1 UNK         0.2946 
    123 H123      -77.3068   22.6248  -72.4254 H         1 UNK         0.1144 
    124 H124      -76.0531   22.3311  -74.5502 H         1 UNK         0.0793 
    125 H125      -74.9971   22.9939  -73.3146 H         1 UNK         0.0793 
    126 H126      -75.6357   24.0360  -74.5855 H         1 UNK         0.0793 
    127 H127      -76.0016   25.1971  -72.3839 H         1 UNK         0.2896 
@<TRIPOS>BOND
     1    1    2 1    
     2    1   67 1    
     3    1   68 1    
     4    1   69 1    
     5    2    3 2    
     6    2    4 am   BACKBONE|DICT|INTERRES
     7    4    5 1    
     8    4   70 1    
     9    5    6 1    
    10    5   65 1    
    11    5   71 1    
    12    6    7 1    
    13    6   72 1    
    14    6   73 1    
    15    7    8 1    
    16    8    9 1    
    17    8   74 1    
    18    8   75 1    
    19    9   10 ar   
    20    9   14 ar   
    21   10   11 ar   
    22   10   76 1    
    23   11   12 ar   
    24   11   48 1    
    25   12   13 ar   
    26   12   77 1    
    27   13   14 ar   
    28   13   15 1    
    29   14   78 1    
    30   15   16 1    
    31   15   79 1    
    32   15   80 1    
    33   16   17 1    
    34   17   18 1    
    35   17   81 1    
    36   17   82 1    
    37   18   19 1    
    38   18   22 1    
    39   18   83 1    
    40   19   20 am   BACKBONE|DICT|INTERRES
    41   19   21 2    
    42   20   84 1    
    43   20   85 1    
    44   22   23 am   BACKBONE|DICT|INTERRES
    45   22   86 1    
    46   23   24 2    
    47   23   25 1    
    48   25   26 1    
    49   25   27 1    
    50   25   87 1    
    51   26   88 1    
    52   26   89 1    
    53   26   90 1    
    54   27   28 am   BACKBONE|DICT|INTERRES
    55   27   91 1    
    56   28   29 2    
    57   28   30 1    
    58   30   31 1    
    59   30   32 1    
    60   30   92 1    
    61   31   93 1    
    62   31   94 1    
    63   31   95 1    
    64   32   33 am   BACKBONE|DICT|INTERRES
    65   32   96 1    
    66   33   34 2    
    67   33   35 1    
    68   35   36 1    
    69   35   37 1    
    70   35   97 1    
    71   36   98 1    
    72   36   99 1    
    73   36  100 1    
    74   37   38 am   BACKBONE|DICT|INTERRES
    75   37  101 1    
    76   38   39 2    
    77   38   40 1    
    78   40   41 1    
    79   40   42 1    
    80   40  102 1    
    81   41  103 1    
    82   41  104 1    
    83   41  105 1    
    84   42   43 am   BACKBONE|DICT|INTERRES
    85   42  106 1    
    86   43   44 2    
    87   43   45 1    
    88   45   46 1    
    89   45   49 1    
    90   45  107 1    
    91   46   47 1    
    92   46  108 1    
    93   46  109 1    
    94   47   48 1    
    95   48  110 1    
    96   48  111 1    
    97   49   50 am   BACKBONE|DICT|INTERRES
    98   49  112 1    
    99   50   51 2    
   100   50   52 1    
   101   52   53 1    
   102   52   54 1    
   103   52  113 1    
   104   53  114 1    
   105   53  115 1    
   106   53  116 1    
   107   54   55 am   BACKBONE|DICT|INTERRES
   108   54  117 1    
   109   55   56 2    
   110   55   57 1    
   111   57   58 1    
   112   57   59 1    
   113   57  118 1    
   114   58  119 1    
   115   58  120 1    
   116   58  121 1    
   117   59   60 am   BACKBONE|DICT|INTERRES
   118   59  122 1    
   119   60   61 2    
   120   60   62 1    
   121   62   63 1    
   122   62   64 1    
   123   62  123 1    
   124   63  124 1    
   125   63  125 1    
   126   63  126 1    
   127   64   65 am   BACKBONE|DICT|INTERRES
   128   64  127 1    
   129   65   66 2    
@<TRIPOS>SUBSTRUCTURE
     1 UNK         1 GROUP             0       ****    0 ROOT    
