@<TRIPOS>MOLECULE
3R135
127   129    1
SMALL
USER_CHARGES


@<TRIPOS>ATOM
      1 CA        -79.9362   30.4467  -76.3202 C.3       0 UNK        -0.1998 
      2 C         -80.7258   29.6891  -75.2632 C.2       0 UNK         0.4909 
      3 O         -81.9462   29.5768  -75.3832 O.2       0 UNK        -0.5240 
      4 N         -80.0337   29.1733  -74.2377 N.am      1 UNK        -0.4739 
      5 CA        -80.5780   28.4073  -73.1044 C.3       1 UNK         0.0864 
      6 C6        -81.4445   29.2540  -72.1317 C.3       11 UNK        -0.0881 
      7 S7        -80.5595   30.6820  -71.4174 S.3       11 UNK        -0.2682 
      8 C8        -80.0443   30.0411  -69.7905 C.3       11 UNK         0.0289 
      9 C9        -78.6879   29.3565  -69.8661 C.ar      11 UNK        -0.0687 
     10 C10       -78.5913   27.9754  -70.0590 C.ar      11 UNK        -0.0823 
     11 C11       -77.3392   27.3591  -70.1642 C.ar      11 UNK        -0.0830 
     12 C12       -76.1800   28.1294  -70.0268 C.ar      11 UNK        -0.1021 
     13 C13       -76.2646   29.5085  -69.8137 C.ar      11 UNK        -0.0753 
     14 C14       -77.5215   30.1152  -69.7403 C.ar      11 UNK        -0.0933 
     15 C15       -75.0054   30.3533  -69.6587 C.3       11 UNK         0.0166 
     16 S16       -73.8750   30.2396  -71.0847 S.3       11 UNK        -0.2615 
     17 C17       -74.9582   30.6713  -72.4931 C.3       11 UNK        -0.0865 
     18 CA        -74.8514   29.6214  -73.6352 C.3       10 UNK         0.0862 
     19 C         -75.9983   29.7815  -74.6749 C.2       10 UNK         0.5551 
     20 N         -75.7208   29.9919  -75.9539 N.am      10 UNK        -0.7319 
     21 O         -77.1672   29.6647  -74.3143 O.2       10 UNK        -0.5018 
     22 N         -73.4861   29.5031  -74.1826 N.am      10 UNK        -0.4509 
     23 C         -72.7460   30.4679  -74.7455 C.2       10 UNK         0.4899 
     24 O         -73.1602   31.6035  -74.9778 O.2       10 UNK        -0.4839 
     25 CA        -71.2825   30.1293  -75.0942 C.3       9 UNK         0.0222 
     26 CB        -70.3299   30.8250  -74.1071 C.3       9 UNK        -0.1966 
     27 N         -70.9833   28.6927  -75.1078 N.am      9 UNK        -0.4218 
     28 C         -71.3748   27.8427  -76.0658 C.2       9 UNK         0.5020 
     29 O         -72.0162   28.1981  -77.0568 O.2       9 UNK        -0.5274 
     30 CA        -70.9817   26.3623  -75.8947 C.3       8 UNK         0.0270 
     31 CB        -70.8613   25.9272  -74.4194 C.3       8 UNK        -0.1976 
     32 N         -71.9964   25.5367  -76.5416 N.am      8 UNK        -0.4313 
     33 C         -71.8098   24.7224  -77.5884 C.2       8 UNK         0.5041 
     34 O         -70.7050   24.4688  -78.0715 O.2       8 UNK        -0.5577 
     35 CA        -73.0650   24.0776  -78.2138 C.3       7 UNK         0.0284 
     36 CB        -73.1773   22.6000  -77.8054 C.3       7 UNK        -0.1958 
     37 N         -74.3019   24.7723  -77.8486 N.am      7 UNK        -0.4454 
     38 C         -74.6536   25.9863  -78.2937 C.2       7 UNK         0.5089 
     39 O         -74.0693   26.5703  -79.2066 O.2       7 UNK        -0.5125 
     40 CA        -75.8344   26.6837  -77.5935 C.3       6 UNK         0.0408 
     41 CB        -77.0590   26.7380  -78.5197 C.3       6 UNK        -0.1791 
     42 N         -76.2313   26.0793  -76.3178 N.am      6 UNK        -0.4762 
     43 C         -75.5054   26.0401  -75.1897 C.2       6 UNK         0.5007 
     44 O         -74.3726   26.5091  -75.0848 O.2       6 UNK        -0.5032 
     45 CA        -76.1407   25.2971  -73.9997 C.3       5 UNK         0.0783 
     46 C46       -77.1453   26.2108  -73.2527 C.3       11 UNK        -0.0857 
     47 S47       -78.0868   25.3464  -71.9479 S.3       11 UNK        -0.2512 
     48 C48       -77.2325   25.8613  -70.4219 C.3       11 UNK         0.0225 
     49 N         -76.7423   24.0426  -74.4616 N.am      5 UNK        -0.4615 
     50 C         -76.0522   22.9308  -74.7454 C.2       4 UNK         0.5053 
     51 O         -74.8338   22.8331  -74.6075 O.2       4 UNK        -0.5105 
     52 CA        -76.8474   21.7266  -75.2803 C.3       4 UNK         0.0263 
     53 CB        -77.2904   20.8218  -74.1195 C.3       4 UNK        -0.1981 
     54 N         -78.0215   22.1170  -76.0646 N.am      4 UNK        -0.4224 
     55 C         -77.9724   22.6823  -77.2798 C.2       3 UNK         0.4895 
     56 O         -76.9297   22.8790  -77.9032 O.2       3 UNK        -0.5091 
     57 CA        -79.3138   23.1478  -77.8791 C.3       3 UNK         0.0250 
     58 CB        -79.9824   22.0043  -78.6587 C.3       3 UNK        -0.1996 
     59 N         -80.2529   23.6799  -76.8811 N.am      3 UNK        -0.4254 
     60 C         -79.9955   24.7303  -76.0901 C.2       2 UNK         0.5004 
     61 O         -78.9390   25.3674  -76.1308 O.2       2 UNK        -0.5226 
     62 CA        -81.0506   25.0962  -75.0397 C.3       2 UNK         0.0269 
     63 CB        -81.1496   23.9878  -73.9692 C.3       2 UNK        -0.1926 
     64 N         -80.6336   26.3629  -74.4432 N.am      2 UNK        -0.4687 
     65 C         -81.2972   27.1154  -73.5614 C.2       1 UNK         0.5165 
     66 O         -82.4166   26.8315  -73.1295 O.2       1 UNK        -0.5079 
     67 H67       -79.7901   29.8207  -77.1999 H         1 UNK         0.0900 
     68 H68       -78.9590   30.7555  -75.9512 H         1 UNK         0.0900 
     69 H69       -80.4755   31.3435  -76.6239 H         1 UNK         0.0900 
     70 H70       -79.0269   29.3265  -74.2095 H         1 UNK         0.2959 
     71 H71       -79.7065   28.0636  -72.5484 H         1 UNK         0.1079 
     72 H72       -82.3288   29.6316  -72.6479 H         1 UNK         0.0837 
     73 H73       -81.8228   28.6349  -71.3165 H         1 UNK         0.0837 
     74 H74       -79.9894   30.8776  -69.0922 H         1 UNK         0.0685 
     75 H75       -80.7982   29.3651  -69.3849 H         1 UNK         0.0685 
     76 H76       -79.4899   27.3809  -70.1522 H         1 UNK         0.1434 
     77 H77       -75.2071   27.6617  -70.0946 H         1 UNK         0.1329 
     78 H78       -77.5961   31.1833  -69.5874 H         1 UNK         0.1335 
     79 H79       -74.4731   30.0318  -68.7626 H         1 UNK         0.0680 
     80 H80       -75.2593   31.4031  -69.5037 H         1 UNK         0.0680 
     81 H81       -74.6931   31.6671  -72.8499 H         1 UNK         0.1032 
     82 H82       -75.9897   30.7546  -72.1484 H         1 UNK         0.1032 
     83 H83       -75.0364   28.6476  -73.1838 H         1 UNK         0.0461 
     84 H84       -76.4710   30.0813  -76.6183 H         1 UNK         0.3453 
     85 H85       -74.7626   30.0942  -76.2482 H         1 UNK         0.3453 
     86 H86       -73.0780   28.5835  -74.1021 H         1 UNK         0.2984 
     87 H87       -71.0859   30.5287  -76.0915 H         1 UNK         0.0554 
     88 H88       -69.2862   30.6587  -74.3748 H         1 UNK         0.0847 
     89 H89       -70.4779   30.4716  -73.0857 H         1 UNK         0.0847 
     90 H90       -70.4916   31.9039  -74.1026 H         1 UNK         0.0847 
     91 H91       -70.4580   28.3297  -74.3252 H         1 UNK         0.3141 
     92 H92       -70.0130   26.2288  -76.3801 H         1 UNK         0.0743 
     93 H93       -70.0303   26.4245  -73.9183 H         1 UNK         0.0784 
     94 H94       -71.7717   26.1421  -73.8575 H         1 UNK         0.0784 
     95 H95       -70.6754   24.8555  -74.3433 H         1 UNK         0.0784 
     96 H96       -72.9477   25.7386  -76.2478 H         1 UNK         0.3213 
     97 H97       -72.9544   24.1261  -79.2992 H         1 UNK         0.0855 
     98 H98       -72.3053   22.0371  -78.1408 H         1 UNK         0.0814 
     99 H99       -74.0569   22.1301  -78.2465 H         1 UNK         0.0814 
    100 H100      -73.2409   22.4843  -76.7233 H         1 UNK         0.0814 
    101 H101      -74.8845   24.3382  -77.1462 H         1 UNK         0.3105 
    102 H102      -75.5158   27.7058  -77.3881 H         1 UNK         0.0547 
    103 H103      -76.8180   27.2346  -79.4605 H         1 UNK         0.0837 
    104 H104      -77.4210   25.7384  -78.7608 H         1 UNK         0.0837 
    105 H105      -77.8795   27.2908  -78.0619 H         1 UNK         0.0837 
    106 H106      -77.1736   25.6911  -76.2900 H         1 UNK         0.3020 
    107 H107      -75.3354   25.0515  -73.3031 H         1 UNK         0.1245 
    108 H108      -77.8678   26.6369  -73.9489 H         1 UNK         0.0781 
    109 H109      -76.6277   27.0632  -72.8142 H         1 UNK         0.0781 
    110 H110      -76.1897   25.5454  -70.4792 H         1 UNK         0.0836 
    111 H111      -77.6689   25.3268  -69.5773 H         1 UNK         0.0836 
    112 H112      -77.7370   24.0636  -74.6315 H         1 UNK         0.3022 
    113 H113      -76.1807   21.1528  -75.9280 H         1 UNK         0.0747 
    114 H114      -77.7932   19.9257  -74.4837 H         1 UNK         0.0793 
    115 H115      -76.4314   20.4932  -73.5325 H         1 UNK         0.0793 
    116 H116      -77.9705   21.3378  -73.4402 H         1 UNK         0.0793 
    117 H117      -78.9250   21.9811  -75.6356 H         1 UNK         0.3047 
    118 H118      -79.0928   23.9534  -78.5822 H         1 UNK         0.0822 
    119 H119      -80.8815   22.3460  -79.1718 H         1 UNK         0.0807 
    120 H120      -80.2614   21.1765  -78.0056 H         1 UNK         0.0807 
    121 H121      -79.3096   21.6063  -79.4199 H         1 UNK         0.0807 
    122 H122      -81.1394   23.2036  -76.7922 H         1 UNK         0.2946 
    123 H123      -82.0136   25.2361  -75.5349 H         1 UNK         0.1144 
    124 H124      -81.8828   24.2305  -73.2006 H         1 UNK         0.0793 
    125 H125      -80.1938   23.8194  -73.4725 H         1 UNK         0.0793 
    126 H126      -81.4606   23.0389  -74.4073 H         1 UNK         0.0793 
    127 H127      -79.7411   26.6863  -74.7973 H         1 UNK         0.2896 
@<TRIPOS>BOND
     1    1    2 1    
     2    1   67 1    
     3    1   68 1    
     4    1   69 1    
     5    2    3 2    
     6    2    4 am   BACKBONE|DICT|INTERRES
     7    4    5 1    
     8    4   70 1    
     9    5    6 1    
    10    5   65 1    
    11    5   71 1    
    12    6    7 1    
    13    6   72 1    
    14    6   73 1    
    15    7    8 1    
    16    8    9 1    
    17    8   74 1    
    18    8   75 1    
    19    9   10 ar   
    20    9   14 ar   
    21   10   11 ar   
    22   10   76 1    
    23   11   12 ar   
    24   11   48 1    
    25   12   13 ar   
    26   12   77 1    
    27   13   14 ar   
    28   13   15 1    
    29   14   78 1    
    30   15   16 1    
    31   15   79 1    
    32   15   80 1    
    33   16   17 1    
    34   17   18 1    
    35   17   81 1    
    36   17   82 1    
    37   18   19 1    
    38   18   22 1    
    39   18   83 1    
    40   19   20 am   BACKBONE|DICT|INTERRES
    41   19   21 2    
    42   20   84 1    
    43   20   85 1    
    44   22   23 am   BACKBONE|DICT|INTERRES
    45   22   86 1    
    46   23   24 2    
    47   23   25 1    
    48   25   26 1    
    49   25   27 1    
    50   25   87 1    
    51   26   88 1    
    52   26   89 1    
    53   26   90 1    
    54   27   28 am   BACKBONE|DICT|INTERRES
    55   27   91 1    
    56   28   29 2    
    57   28   30 1    
    58   30   31 1    
    59   30   32 1    
    60   30   92 1    
    61   31   93 1    
    62   31   94 1    
    63   31   95 1    
    64   32   33 am   BACKBONE|DICT|INTERRES
    65   32   96 1    
    66   33   34 2    
    67   33   35 1    
    68   35   36 1    
    69   35   37 1    
    70   35   97 1    
    71   36   98 1    
    72   36   99 1    
    73   36  100 1    
    74   37   38 am   BACKBONE|DICT|INTERRES
    75   37  101 1    
    76   38   39 2    
    77   38   40 1    
    78   40   41 1    
    79   40   42 1    
    80   40  102 1    
    81   41  103 1    
    82   41  104 1    
    83   41  105 1    
    84   42   43 am   BACKBONE|DICT|INTERRES
    85   42  106 1    
    86   43   44 2    
    87   43   45 1    
    88   45   46 1    
    89   45   49 1    
    90   45  107 1    
    91   46   47 1    
    92   46  108 1    
    93   46  109 1    
    94   47   48 1    
    95   48  110 1    
    96   48  111 1    
    97   49   50 am   BACKBONE|DICT|INTERRES
    98   49  112 1    
    99   50   51 2    
   100   50   52 1    
   101   52   53 1    
   102   52   54 1    
   103   52  113 1    
   104   53  114 1    
   105   53  115 1    
   106   53  116 1    
   107   54   55 am   BACKBONE|DICT|INTERRES
   108   54  117 1    
   109   55   56 2    
   110   55   57 1    
   111   57   58 1    
   112   57   59 1    
   113   57  118 1    
   114   58  119 1    
   115   58  120 1    
   116   58  121 1    
   117   59   60 am   BACKBONE|DICT|INTERRES
   118   59  122 1    
   119   60   61 2    
   120   60   62 1    
   121   62   63 1    
   122   62   64 1    
   123   62  123 1    
   124   63  124 1    
   125   63  125 1    
   126   63  126 1    
   127   64   65 am   BACKBONE|DICT|INTERRES
   128   64  127 1    
   129   65   66 2    
@<TRIPOS>SUBSTRUCTURE
     1 UNK         1 GROUP             0       ****    0 ROOT    
