@<TRIPOS>MOLECULE
3R135
127   129    1
SMALL
USER_CHARGES


@<TRIPOS>ATOM
      1 CA        -82.9406   28.0338  -72.2155 C.3       0 UNK        -0.1998 
      2 C         -81.5558   27.5860  -71.7560 C.2       0 UNK         0.4909 
      3 O         -81.4435   26.5567  -71.0941 O.2       0 UNK        -0.5240 
      4 N         -80.4758   28.3179  -72.0620 N.am      1 UNK        -0.4739 
      5 CA        -80.4261   29.5418  -72.8703 C.3       1 UNK         0.0864 
      6 C6        -79.0934   30.2980  -72.6542 C.3       11 UNK        -0.0881 
      7 S7        -79.0459   31.2765  -71.1116 S.3       11 UNK        -0.2682 
      8 C8        -78.6806   30.0650  -69.7965 C.3       11 UNK         0.0289 
      9 C9        -77.5200   29.1372  -70.1271 C.ar      11 UNK        -0.0687 
     10 C10       -77.7462   27.7643  -70.2504 C.ar      11 UNK        -0.0823 
     11 C11       -76.7053   26.8984  -70.5895 C.ar      11 UNK        -0.0830 
     12 C12       -75.4179   27.4093  -70.7754 C.ar      11 UNK        -0.1021 
     13 C13       -75.1709   28.7781  -70.6235 C.ar      11 UNK        -0.0753 
     14 C14       -76.2261   29.6389  -70.3019 C.ar      11 UNK        -0.0933 
     15 C15       -73.7577   29.3154  -70.7885 C.3       11 UNK         0.0166 
     16 S16       -73.3296   29.5733  -72.5375 S.3       11 UNK        -0.2615 
     17 C17       -74.1191   31.1797  -72.9009 C.3       11 UNK        -0.0865 
     18 CA        -75.4366   31.0570  -73.7120 C.3       10 UNK         0.0862 
     19 C         -76.0860   32.4594  -73.9163 C.2       10 UNK         0.5551 
     20 N         -76.3188   32.9183  -75.1398 N.am      10 UNK        -0.7319 
     21 O         -76.3758   33.1490  -72.9426 O.2       10 UNK        -0.5018 
     22 N         -75.2499   30.2619  -74.9389 N.am      10 UNK        -0.4509 
     23 C         -76.2297   29.7034  -75.6621 C.2       10 UNK         0.4899 
     24 O         -77.4247   29.8322  -75.4048 O.2       10 UNK        -0.4839 
     25 CA        -75.8247   28.8769  -76.8974 C.3       9 UNK         0.0222 
     26 CB        -76.2937   29.5605  -78.1926 C.3       9 UNK        -0.1966 
     27 N         -74.3849   28.6067  -76.9848 N.am      9 UNK        -0.4218 
     28 C         -73.7673   27.6346  -76.3031 C.2       9 UNK         0.5020 
     29 O         -74.3470   26.8476  -75.5493 O.2       9 UNK        -0.5274 
     30 CA        -72.2494   27.5163  -76.4908 C.3       8 UNK         0.0270 
     31 CB        -71.4948   28.6414  -75.7558 C.3       8 UNK        -0.1976 
     32 N         -71.8744   26.2118  -75.9653 N.am      8 UNK        -0.4313 
     33 C         -70.7100   25.5706  -76.0836 C.2       8 UNK         0.5041 
     34 O         -69.7083   26.0384  -76.6269 O.2       8 UNK        -0.5577 
     35 CA        -70.6782   24.1408  -75.5164 C.3       7 UNK         0.0284 
     36 CB        -70.3236   24.1581  -74.0207 C.3       7 UNK        -0.1958 
     37 N         -71.9486   23.4312  -75.7080 N.am      7 UNK        -0.4454 
     38 C         -72.4448   23.0576  -76.8936 C.2       7 UNK         0.5089 
     39 O         -71.8628   23.2432  -77.9629 O.2       7 UNK        -0.5125 
     40 CA        -73.8116   22.3524  -76.9079 C.3       6 UNK         0.0408 
     41 CB        -73.6583   20.8513  -76.5965 C.3       6 UNK        -0.1791 
     42 N         -74.8673   22.9592  -76.0834 N.am      6 UNK        -0.4762 
     43 C         -74.9643   23.0431  -74.7454 C.2       6 UNK         0.5007 
     44 O         -74.0388   22.7633  -73.9818 O.2       6 UNK        -0.5032 
     45 CA        -76.3285   23.4576  -74.1408 C.3       5 UNK         0.0783 
     46 C46       -76.2587   24.8299  -73.4292 C.3       11 UNK        -0.0857 
     47 S47       -77.7331   25.0814  -72.3820 S.3       11 UNK        -0.2512 
     48 C48       -76.9924   25.4152  -70.7543 C.3       11 UNK         0.0225 
     49 N         -77.4251   23.4196  -75.1165 N.am      5 UNK        -0.4615 
     50 C         -77.9466   22.3061  -75.6526 C.2       4 UNK         0.5053 
     51 O         -77.6336   21.1703  -75.2954 O.2       4 UNK        -0.5105 
     52 CA        -78.9606   22.4740  -76.8038 C.3       4 UNK         0.0263 
     53 CB        -80.3926   22.2515  -76.2910 C.3       4 UNK        -0.1981 
     54 N         -78.8953   23.7742  -77.4800 N.am      4 UNK        -0.4224 
     55 C         -77.8219   24.2902  -78.0977 C.2       3 UNK         0.4895 
     56 O         -76.7719   23.6702  -78.2673 O.2       3 UNK        -0.5091 
     57 CA        -77.9036   25.7600  -78.5555 C.3       3 UNK         0.0250 
     58 CB        -78.0450   25.8401  -80.0838 C.3       3 UNK        -0.1996 
     59 N         -78.9736   26.5536  -77.9321 N.am      3 UNK        -0.4254 
     60 C         -79.1309   26.7746  -76.6182 C.2       2 UNK         0.5004 
     61 O         -78.4055   26.2894  -75.7470 O.2       2 UNK        -0.5226 
     62 CA        -80.3421   27.6256  -76.2222 C.3       2 UNK         0.0269 
     63 CB        -81.6493   26.8220  -76.3576 C.3       2 UNK        -0.1926 
     64 N         -80.1989   28.0775  -74.8414 N.am      2 UNK        -0.4687 
     65 C         -80.6513   29.2454  -74.3680 C.2       1 UNK         0.5165 
     66 O         -81.2687   30.0628  -75.0523 O.2       1 UNK        -0.5079 
     67 H67       -83.1442   29.0621  -71.9195 H         1 UNK         0.0900 
     68 H68       -83.7102   27.4068  -71.7657 H         1 UNK         0.0900 
     69 H69       -83.0378   27.9494  -73.2973 H         1 UNK         0.0900 
     70 H70       -79.5748   27.9838  -71.7541 H         1 UNK         0.2959 
     71 H71       -81.2374   30.2022  -72.5584 H         1 UNK         0.1079 
     72 H72       -78.2450   29.6141  -72.7028 H         1 UNK         0.0837 
     73 H73       -78.9296   31.0192  -73.4581 H         1 UNK         0.0837 
     74 H74       -78.4499   30.6065  -68.8782 H         1 UNK         0.0685 
     75 H75       -79.5874   29.4947  -69.5892 H         1 UNK         0.0685 
     76 H76       -78.7368   27.3608  -70.0901 H         1 UNK         0.1434 
     77 H77       -74.6062   26.7442  -71.0368 H         1 UNK         0.1329 
     78 H78       -76.0457   30.6999  -70.1952 H         1 UNK         0.1335 
     79 H79       -73.6237   30.2415  -70.2275 H         1 UNK         0.0680 
     80 H80       -73.0506   28.6025  -70.3617 H         1 UNK         0.0680 
     81 H81       -73.3978   31.7877  -73.4500 H         1 UNK         0.1032 
     82 H82       -74.2962   31.7089  -71.9628 H         1 UNK         0.1032 
     83 H83       -76.1378   30.5008  -73.0898 H         1 UNK         0.0461 
     84 H84       -76.0956   32.3561  -75.9444 H         1 UNK         0.3453 
     85 H85       -76.7373   33.8275  -75.2559 H         1 UNK         0.3453 
     86 H86       -74.2945   30.0950  -75.2130 H         1 UNK         0.2984 
     87 H87       -76.3495   27.9245  -76.8148 H         1 UNK         0.0554 
     88 H88       -77.3698   29.7395  -78.1722 H         1 UNK         0.0847 
     89 H89       -76.0906   28.9388  -79.0649 H         1 UNK         0.0847 
     90 H90       -75.8057   30.5241  -78.3431 H         1 UNK         0.0847 
     91 H91       -73.8417   29.2062  -77.5905 H         1 UNK         0.3141 
     92 H92       -72.0235   27.5468  -77.5585 H         1 UNK         0.0743 
     93 H93       -70.4256   28.6040  -75.9639 H         1 UNK         0.0784 
     94 H94       -71.6219   28.5672  -74.6763 H         1 UNK         0.0784 
     95 H95       -71.8444   29.6273  -76.0634 H         1 UNK         0.0784 
     96 H96       -72.6541   25.7425  -75.5164 H         1 UNK         0.3213 
     97 H97       -69.8996   23.5900  -76.0487 H         1 UNK         0.0855 
     98 H98       -71.0824   24.6741  -73.4308 H         1 UNK         0.0814 
     99 H99       -69.3747   24.6688  -73.8512 H         1 UNK         0.0814 
    100 H100      -70.2219   23.1471  -73.6257 H         1 UNK         0.0814 
    101 H101      -72.5126   23.2257  -74.8853 H         1 UNK         0.3105 
    102 H102      -74.1816   22.4280  -77.9317 H         1 UNK         0.0547 
    103 H103      -72.9506   20.3820  -77.2811 H         1 UNK         0.0837 
    104 H104      -73.2914   20.6785  -75.5843 H         1 UNK         0.0837 
    105 H105      -74.6079   20.3265  -76.7025 H         1 UNK         0.0837 
    106 H106      -75.6720   23.2653  -76.6228 H         1 UNK         0.3020 
    107 H107      -76.5426   22.7007  -73.3825 H         1 UNK         0.1245 
    108 H108      -75.3580   24.9117  -72.8186 H         1 UNK         0.0781 
    109 H109      -76.2068   25.6424  -74.1554 H         1 UNK         0.0781 
    110 H110      -76.0908   24.8181  -70.6101 H         1 UNK         0.0836 
    111 H111      -77.6915   25.0937  -69.9807 H         1 UNK         0.0836 
    112 H112      -77.7674   24.3244  -75.4253 H         1 UNK         0.3022 
    113 H113      -78.7351   21.7063  -77.5468 H         1 UNK         0.0747 
    114 H114      -81.1163   22.2777  -77.1060 H         1 UNK         0.0793 
    115 H115      -80.4877   21.2779  -75.8078 H         1 UNK         0.0793 
    116 H116      -80.6804   23.0077  -75.5593 H         1 UNK         0.0793 
    117 H117      -79.7069   24.3663  -77.3885 H         1 UNK         0.3047 
    118 H118      -76.9534   26.2207  -78.2806 H         1 UNK         0.0822 
    119 H119      -77.9842   26.8703  -80.4353 H         1 UNK         0.0807 
    120 H120      -78.9933   25.4221  -80.4241 H         1 UNK         0.0807 
    121 H121      -77.2476   25.2850  -80.5804 H         1 UNK         0.0807 
    122 H122      -79.6352   26.9738  -78.5696 H         1 UNK         0.2946 
    123 H123      -80.3696   28.4915  -76.8883 H         1 UNK         0.1144 
    124 H124      -82.5156   27.4296  -76.0956 H         1 UNK         0.0793 
    125 H125      -81.6501   25.9446  -75.7092 H         1 UNK         0.0793 
    126 H126      -81.8004   26.4750  -77.3805 H         1 UNK         0.0793 
    127 H127      -79.6375   27.4755  -74.2516 H         1 UNK         0.2896 
@<TRIPOS>BOND
     1    1    2 1    
     2    1   67 1    
     3    1   68 1    
     4    1   69 1    
     5    2    3 2    
     6    2    4 am   BACKBONE|DICT|INTERRES
     7    4    5 1    
     8    4   70 1    
     9    5    6 1    
    10    5   65 1    
    11    5   71 1    
    12    6    7 1    
    13    6   72 1    
    14    6   73 1    
    15    7    8 1    
    16    8    9 1    
    17    8   74 1    
    18    8   75 1    
    19    9   10 ar   
    20    9   14 ar   
    21   10   11 ar   
    22   10   76 1    
    23   11   12 ar   
    24   11   48 1    
    25   12   13 ar   
    26   12   77 1    
    27   13   14 ar   
    28   13   15 1    
    29   14   78 1    
    30   15   16 1    
    31   15   79 1    
    32   15   80 1    
    33   16   17 1    
    34   17   18 1    
    35   17   81 1    
    36   17   82 1    
    37   18   19 1    
    38   18   22 1    
    39   18   83 1    
    40   19   20 am   BACKBONE|DICT|INTERRES
    41   19   21 2    
    42   20   84 1    
    43   20   85 1    
    44   22   23 am   BACKBONE|DICT|INTERRES
    45   22   86 1    
    46   23   24 2    
    47   23   25 1    
    48   25   26 1    
    49   25   27 1    
    50   25   87 1    
    51   26   88 1    
    52   26   89 1    
    53   26   90 1    
    54   27   28 am   BACKBONE|DICT|INTERRES
    55   27   91 1    
    56   28   29 2    
    57   28   30 1    
    58   30   31 1    
    59   30   32 1    
    60   30   92 1    
    61   31   93 1    
    62   31   94 1    
    63   31   95 1    
    64   32   33 am   BACKBONE|DICT|INTERRES
    65   32   96 1    
    66   33   34 2    
    67   33   35 1    
    68   35   36 1    
    69   35   37 1    
    70   35   97 1    
    71   36   98 1    
    72   36   99 1    
    73   36  100 1    
    74   37   38 am   BACKBONE|DICT|INTERRES
    75   37  101 1    
    76   38   39 2    
    77   38   40 1    
    78   40   41 1    
    79   40   42 1    
    80   40  102 1    
    81   41  103 1    
    82   41  104 1    
    83   41  105 1    
    84   42   43 am   BACKBONE|DICT|INTERRES
    85   42  106 1    
    86   43   44 2    
    87   43   45 1    
    88   45   46 1    
    89   45   49 1    
    90   45  107 1    
    91   46   47 1    
    92   46  108 1    
    93   46  109 1    
    94   47   48 1    
    95   48  110 1    
    96   48  111 1    
    97   49   50 am   BACKBONE|DICT|INTERRES
    98   49  112 1    
    99   50   51 2    
   100   50   52 1    
   101   52   53 1    
   102   52   54 1    
   103   52  113 1    
   104   53  114 1    
   105   53  115 1    
   106   53  116 1    
   107   54   55 am   BACKBONE|DICT|INTERRES
   108   54  117 1    
   109   55   56 2    
   110   55   57 1    
   111   57   58 1    
   112   57   59 1    
   113   57  118 1    
   114   58  119 1    
   115   58  120 1    
   116   58  121 1    
   117   59   60 am   BACKBONE|DICT|INTERRES
   118   59  122 1    
   119   60   61 2    
   120   60   62 1    
   121   62   63 1    
   122   62   64 1    
   123   62  123 1    
   124   63  124 1    
   125   63  125 1    
   126   63  126 1    
   127   64   65 am   BACKBONE|DICT|INTERRES
   128   64  127 1    
   129   65   66 2    
@<TRIPOS>SUBSTRUCTURE
     1 UNK         1 GROUP             0       ****    0 ROOT    
