@<TRIPOS>MOLECULE
3R135
127   129    1
SMALL
USER_CHARGES


@<TRIPOS>ATOM
      1 CA        -84.1240   31.5143  -75.8296 C.3       0 UNK        -0.1998 
      2 C         -83.4819   30.1873  -76.2059 C.2       0 UNK         0.4909 
      3 O         -83.5813   29.7630  -77.3581 O.2       0 UNK        -0.5240 
      4 N         -82.8165   29.5342  -75.2457 N.am      1 UNK        -0.4739 
      5 CA        -82.2046   28.2101  -75.3985 C.3       1 UNK         0.0864 
      6 C6        -81.1039   27.9751  -74.3281 C.3       11 UNK        -0.0881 
      7 S7        -81.6435   28.2074  -72.5982 S.3       11 UNK        -0.2682 
      8 C8        -80.4856   29.4906  -72.0089 C.3       11 UNK         0.0289 
      9 C9        -79.0521   28.9903  -71.8427 C.ar      11 UNK        -0.0687 
     10 C10       -78.7841   27.8246  -71.1147 C.ar      11 UNK        -0.0823 
     11 C11       -77.4691   27.3912  -70.9232 C.ar      11 UNK        -0.0830 
     12 C12       -76.4205   28.1378  -71.4590 C.ar      11 UNK        -0.1021 
     13 C13       -76.6627   29.3018  -72.1904 C.ar      11 UNK        -0.0753 
     14 C14       -77.9848   29.7222  -72.3789 C.ar      11 UNK        -0.0933 
     15 C15       -75.5043   30.0783  -72.8107 C.3       11 UNK         0.0166 
     16 S16       -74.3689   30.8025  -71.5827 S.3       11 UNK        -0.2615 
     17 C17       -73.0647   29.5259  -71.4149 C.3       11 UNK        -0.0865 
     18 CA        -71.8662   29.7493  -72.3756 C.3       10 UNK         0.0862 
     19 C         -70.6138   28.9206  -71.9575 C.2       10 UNK         0.5551 
     20 N         -69.9228   28.2360  -72.8626 N.am      10 UNK        -0.7319 
     21 O         -70.2470   28.9098  -70.7850 O.2       10 UNK        -0.5018 
     22 N         -72.2626   29.5241  -73.7744 N.am      10 UNK        -0.4509 
     23 C         -71.8576   30.2642  -74.8122 C.2       10 UNK         0.4899 
     24 O         -71.1514   31.2685  -74.7052 O.2       10 UNK        -0.4839 
     25 CA        -72.3155   29.7886  -76.2049 C.3       9 UNK         0.0222 
     26 CB        -71.5710   30.4969  -77.3564 C.3       9 UNK        -0.1966 
     27 N         -72.2537   28.3310  -76.3772 N.am      9 UNK        -0.4218 
     28 C         -71.1769   27.5386  -76.2439 C.2       9 UNK         0.5020 
     29 O         -70.0720   27.9540  -75.8911 O.2       9 UNK        -0.5274 
     30 CA        -71.3368   26.0274  -76.5156 C.3       8 UNK         0.0270 
     31 CB        -70.9799   25.2156  -75.2583 C.3       8 UNK        -0.1976 
     32 N         -72.6738   25.6347  -76.9684 N.am      8 UNK        -0.4313 
     33 C         -73.1808   25.8520  -78.1897 C.2       8 UNK         0.5041 
     34 O         -72.5377   26.3310  -79.1239 O.2       8 UNK        -0.5577 
     35 CA        -74.6783   25.5413  -78.3783 C.3       7 UNK         0.0284 
     36 CB        -74.8893   24.0713  -78.7727 C.3       7 UNK        -0.1958 
     37 N         -75.4759   25.8555  -77.1865 N.am      7 UNK        -0.4454 
     38 C         -75.6044   27.0823  -76.6596 C.2       7 UNK         0.5089 
     39 O         -75.1214   28.0956  -77.1626 O.2       7 UNK        -0.5125 
     40 CA        -76.3234   27.1919  -75.3097 C.3       6 UNK         0.0408 
     41 CB        -77.8455   27.2433  -75.4764 C.3       6 UNK        -0.1791 
     42 N         -75.9542   26.0999  -74.4104 N.am      6 UNK        -0.4762 
     43 C         -74.7979   26.0269  -73.7347 C.2       6 UNK         0.5007 
     44 O         -73.9349   26.9078  -73.7583 O.2       6 UNK        -0.5032 
     45 CA        -74.5439   24.7328  -72.9297 C.3       5 UNK         0.0783 
     46 C46       -74.9856   24.8521  -71.4474 C.3       11 UNK        -0.0857 
     47 S47       -76.7935   24.7072  -71.1824 S.3       11 UNK        -0.2512 
     48 C48       -77.1741   26.1346  -70.1168 C.3       11 UNK         0.0225 
     49 N         -75.1228   23.5465  -73.5684 N.am      5 UNK        -0.4615 
     50 C         -74.7384   23.0352  -74.7437 C.2       4 UNK         0.5053 
     51 O         -73.8026   23.4798  -75.4056 O.2       4 UNK        -0.5105 
     52 CA        -75.5775   21.8690  -75.2971 C.3       4 UNK         0.0263 
     53 CB        -75.0591   20.5282  -74.7545 C.3       4 UNK        -0.1981 
     54 N         -77.0130   21.9968  -75.0109 N.am      4 UNK        -0.4224 
     55 C         -77.7801   23.0107  -75.4341 C.2       3 UNK         0.4895 
     56 O         -77.3590   23.9407  -76.1282 O.2       3 UNK        -0.5091 
     57 CA        -79.2399   23.0201  -74.9643 C.3       3 UNK         0.0250 
     58 CB        -79.3220   23.3477  -73.4589 C.3       3 UNK        -0.1996 
     59 N         -79.9591   24.0306  -75.7359 N.am      3 UNK        -0.4254 
     60 C         -81.2819   24.2157  -75.7625 C.2       2 UNK         0.5004 
     61 O         -82.0935   23.4889  -75.1832 O.2       2 UNK        -0.5226 
     62 CA        -81.7825   25.4132  -76.5831 C.3       2 UNK         0.0269 
     63 CB        -82.0643   24.9888  -78.0334 C.3       2 UNK        -0.1926 
     64 N         -83.0260   25.9076  -75.9848 N.am      2 UNK        -0.4687 
     65 C         -83.2783   27.0898  -75.4034 C.2       1 UNK         0.5165 
     66 O         -84.3638   27.2965  -74.8566 O.2       1 UNK        -0.5079 
     67 H67       -83.9433   31.7731  -74.7864 H         1 UNK         0.0900 
     68 H68       -83.7243   32.3147  -76.4516 H         1 UNK         0.0900 
     69 H69       -85.2014   31.4666  -75.9853 H         1 UNK         0.0900 
     70 H70       -82.8045   29.9021  -74.3050 H         1 UNK         0.2959 
     71 H71       -81.7275   28.2106  -76.3801 H         1 UNK         0.1079 
     72 H72       -80.6849   26.9719  -74.4065 H         1 UNK         0.0837 
     73 H73       -80.2758   28.6557  -74.5291 H         1 UNK         0.0837 
     74 H74       -80.5264   30.3430  -72.6889 H         1 UNK         0.0685 
     75 H75       -80.8359   29.8540  -71.0421 H         1 UNK         0.0685 
     76 H76       -79.6028   27.2589  -70.6914 H         1 UNK         0.1434 
     77 H77       -75.4112   27.8010  -71.3077 H         1 UNK         0.1329 
     78 H78       -78.1834   30.6243  -72.9412 H         1 UNK         0.1335 
     79 H79       -74.9402   29.4277  -73.4745 H         1 UNK         0.0680 
     80 H80       -75.8855   30.8865  -73.4364 H         1 UNK         0.0680 
     81 H81       -72.7359   29.5618  -70.3747 H         1 UNK         0.1032 
     82 H82       -73.4655   28.5260  -71.5618 H         1 UNK         0.1032 
     83 H83       -71.5589   30.7900  -72.2588 H         1 UNK         0.0461 
     84 H84       -69.1128   27.7158  -72.5663 H         1 UNK         0.3453 
     85 H85       -70.1651   28.2691  -73.8456 H         1 UNK         0.3453 
     86 H86       -72.8081   28.6861  -73.9469 H         1 UNK         0.2984 
     87 H87       -73.3696   30.0584  -76.2812 H         1 UNK         0.0554 
     88 H88       -71.7123   31.5774  -77.3095 H         1 UNK         0.0847 
     89 H89       -71.9382   30.1659  -78.3279 H         1 UNK         0.0847 
     90 H90       -70.4977   30.3069  -77.3208 H         1 UNK         0.0847 
     91 H91       -73.1303   27.9034  -76.6549 H         1 UNK         0.3141 
     92 H92       -70.6239   25.7675  -77.3007 H         1 UNK         0.0743 
     93 H93       -71.6380   25.4581  -74.4238 H         1 UNK         0.0784 
     94 H94       -71.0515   24.1435  -75.4428 H         1 UNK         0.0784 
     95 H95       -69.9579   25.4186  -74.9352 H         1 UNK         0.0784 
     96 H96       -73.2489   25.1340  -76.2961 H         1 UNK         0.3213 
     97 H97       -75.0458   26.1691  -79.1929 H         1 UNK         0.0855 
     98 H98       -74.5013   23.3896  -78.0165 H         1 UNK         0.0814 
     99 H99       -74.3759   23.8436  -79.7077 H         1 UNK         0.0814 
    100 H100      -75.9459   23.8453  -78.9182 H         1 UNK         0.0814 
    101 H101      -75.9599   25.0840  -76.7334 H         1 UNK         0.3105 
    102 H102      -76.0207   28.1320  -74.8541 H         1 UNK         0.0547 
    103 H103      -78.1450   28.1415  -76.0177 H         1 UNK         0.0837 
    104 H104      -78.2301   26.3877  -76.0278 H         1 UNK         0.0837 
    105 H105      -78.3298   27.2686  -74.5010 H         1 UNK         0.0837 
    106 H106      -76.5864   25.3138  -74.3659 H         1 UNK         0.3020 
    107 H107      -73.4602   24.5944  -72.9317 H         1 UNK         0.1245 
    108 H108      -74.5975   25.7661  -70.9979 H         1 UNK         0.0781 
    109 H109      -74.5215   24.0449  -70.8788 H         1 UNK         0.0781 
    110 H110      -76.3529   26.3149  -69.4215 H         1 UNK         0.0836 
    111 H111      -78.0363   25.8796  -69.4986 H         1 UNK         0.0836 
    112 H112      -75.9053   23.1283  -73.0866 H         1 UNK         0.3022 
    113 H113      -75.4579   21.8652  -76.3822 H         1 UNK         0.0747 
    114 H114      -75.5819   19.6868  -75.2096 H         1 UNK         0.0793 
    115 H115      -73.9975   20.4038  -74.9737 H         1 UNK         0.0793 
    116 H116      -75.1792   20.4541  -73.6729 H         1 UNK         0.0793 
    117 H117      -77.4298   21.2712  -74.4449 H         1 UNK         0.3047 
    118 H118      -79.6765   22.0389  -75.1616 H         1 UNK         0.0822 
    119 H119      -78.7315   22.6524  -72.8615 H         1 UNK         0.0807 
    120 H120      -80.3460   23.2862  -73.0907 H         1 UNK         0.0807 
    121 H121      -78.9575   24.3541  -73.2491 H         1 UNK         0.0807 
    122 H122      -79.3454   24.6049  -76.3009 H         1 UNK         0.2946 
    123 H123      -80.9990   26.1694  -76.5965 H         1 UNK         0.1144 
    124 H124      -82.4213   25.8292  -78.6292 H         1 UNK         0.0793 
    125 H125      -82.8159   24.1997  -78.0858 H         1 UNK         0.0793 
    126 H126      -81.1612   24.6114  -78.5152 H         1 UNK         0.0793 
    127 H127      -83.7357   25.1942  -75.8923 H         1 UNK         0.2896 
@<TRIPOS>BOND
     1    1    2 1    
     2    1   67 1    
     3    1   68 1    
     4    1   69 1    
     5    2    3 2    
     6    2    4 am   BACKBONE|DICT|INTERRES
     7    4    5 1    
     8    4   70 1    
     9    5    6 1    
    10    5   65 1    
    11    5   71 1    
    12    6    7 1    
    13    6   72 1    
    14    6   73 1    
    15    7    8 1    
    16    8    9 1    
    17    8   74 1    
    18    8   75 1    
    19    9   10 ar   
    20    9   14 ar   
    21   10   11 ar   
    22   10   76 1    
    23   11   12 ar   
    24   11   48 1    
    25   12   13 ar   
    26   12   77 1    
    27   13   14 ar   
    28   13   15 1    
    29   14   78 1    
    30   15   16 1    
    31   15   79 1    
    32   15   80 1    
    33   16   17 1    
    34   17   18 1    
    35   17   81 1    
    36   17   82 1    
    37   18   19 1    
    38   18   22 1    
    39   18   83 1    
    40   19   20 am   BACKBONE|DICT|INTERRES
    41   19   21 2    
    42   20   84 1    
    43   20   85 1    
    44   22   23 am   BACKBONE|DICT|INTERRES
    45   22   86 1    
    46   23   24 2    
    47   23   25 1    
    48   25   26 1    
    49   25   27 1    
    50   25   87 1    
    51   26   88 1    
    52   26   89 1    
    53   26   90 1    
    54   27   28 am   BACKBONE|DICT|INTERRES
    55   27   91 1    
    56   28   29 2    
    57   28   30 1    
    58   30   31 1    
    59   30   32 1    
    60   30   92 1    
    61   31   93 1    
    62   31   94 1    
    63   31   95 1    
    64   32   33 am   BACKBONE|DICT|INTERRES
    65   32   96 1    
    66   33   34 2    
    67   33   35 1    
    68   35   36 1    
    69   35   37 1    
    70   35   97 1    
    71   36   98 1    
    72   36   99 1    
    73   36  100 1    
    74   37   38 am   BACKBONE|DICT|INTERRES
    75   37  101 1    
    76   38   39 2    
    77   38   40 1    
    78   40   41 1    
    79   40   42 1    
    80   40  102 1    
    81   41  103 1    
    82   41  104 1    
    83   41  105 1    
    84   42   43 am   BACKBONE|DICT|INTERRES
    85   42  106 1    
    86   43   44 2    
    87   43   45 1    
    88   45   46 1    
    89   45   49 1    
    90   45  107 1    
    91   46   47 1    
    92   46  108 1    
    93   46  109 1    
    94   47   48 1    
    95   48  110 1    
    96   48  111 1    
    97   49   50 am   BACKBONE|DICT|INTERRES
    98   49  112 1    
    99   50   51 2    
   100   50   52 1    
   101   52   53 1    
   102   52   54 1    
   103   52  113 1    
   104   53  114 1    
   105   53  115 1    
   106   53  116 1    
   107   54   55 am   BACKBONE|DICT|INTERRES
   108   54  117 1    
   109   55   56 2    
   110   55   57 1    
   111   57   58 1    
   112   57   59 1    
   113   57  118 1    
   114   58  119 1    
   115   58  120 1    
   116   58  121 1    
   117   59   60 am   BACKBONE|DICT|INTERRES
   118   59  122 1    
   119   60   61 2    
   120   60   62 1    
   121   62   63 1    
   122   62   64 1    
   123   62  123 1    
   124   63  124 1    
   125   63  125 1    
   126   63  126 1    
   127   64   65 am   BACKBONE|DICT|INTERRES
   128   64  127 1    
   129   65   66 2    
@<TRIPOS>SUBSTRUCTURE
     1 UNK         1 GROUP             0       ****    0 ROOT    
