@<TRIPOS>MOLECULE
3R135
127   129    1
SMALL
USER_CHARGES


@<TRIPOS>ATOM
      1 CA        -77.2674   22.0190  -74.7561 C.3       0 UNK        -0.1998 
      2 C         -77.7073   22.6715  -73.4544 C.2       0 UNK         0.4909 
      3 O         -77.4346   22.1398  -72.3781 O.2       0 UNK        -0.5240 
      4 N         -78.3896   23.8171  -73.5496 N.am      1 UNK        -0.4739 
      5 CA        -79.0086   24.5228  -72.4255 C.3       1 UNK         0.0864 
      6 C6        -79.0629   26.0447  -72.6981 C.3       11 UNK        -0.0881 
      7 S7        -79.3463   27.0296  -71.1925 S.3       11 UNK        -0.2682 
      8 C8        -79.7206   28.6621  -71.9152 C.3       11 UNK         0.0289 
      9 C9        -78.5873   29.1975  -72.7834 C.ar      11 UNK        -0.0687 
     10 C10       -78.8398   29.6186  -74.0934 C.ar      11 UNK        -0.0823 
     11 C11       -77.8029   30.1053  -74.8970 C.ar      11 UNK        -0.0830 
     12 C12       -76.5046   30.1686  -74.3792 C.ar      11 UNK        -0.1021 
     13 C13       -76.2435   29.7633  -73.0674 C.ar      11 UNK        -0.0753 
     14 C14       -77.2880   29.2845  -72.2742 C.ar      11 UNK        -0.0933 
     15 C15       -74.8345   29.8347  -72.5042 C.3       11 UNK         0.0166 
     16 S16       -74.5311   31.4196  -71.6683 S.3       11 UNK        -0.2615 
     17 C17       -72.8416   31.1500  -71.0275 C.3       11 UNK        -0.0865 
     18 CA        -71.7515   31.8443  -71.8858 C.3       10 UNK         0.0862 
     19 C         -70.3594   31.7726  -71.1907 C.2       10 UNK         0.5551 
     20 N         -69.3369   31.1848  -71.8004 N.am      10 UNK        -0.7319 
     21 O         -70.2042   32.2678  -70.0771 O.2       10 UNK        -0.5018 
     22 N         -71.7664   31.3519  -73.2725 N.am      10 UNK        -0.4509 
     23 C         -71.3216   32.0192  -74.3406 C.2       10 UNK         0.4899 
     24 O         -70.8274   33.1465  -74.2889 O.2       10 UNK        -0.4839 
     25 CA        -71.4414   31.2821  -75.6888 C.3       9 UNK         0.0222 
     26 CB        -71.0617   32.1741  -76.8859 C.3       9 UNK        -0.1966 
     27 N         -70.6272   30.0630  -75.7262 N.am      9 UNK        -0.4218 
     28 C         -70.9384   28.9013  -75.1381 C.2       9 UNK         0.5020 
     29 O         -71.9437   28.7264  -74.4434 O.2       9 UNK        -0.5274 
     30 CA        -69.9440   27.7523  -75.3226 C.3       8 UNK         0.0270 
     31 CB        -68.9340   27.7181  -74.1634 C.3       8 UNK        -0.1976 
     32 N         -70.7024   26.5061  -75.3423 N.am      8 UNK        -0.4313 
     33 C         -70.6054   25.5487  -76.2707 C.2       8 UNK         0.5041 
     34 O         -69.7633   25.5539  -77.1704 O.2       8 UNK        -0.5577 
     35 CA        -71.6075   24.3784  -76.1976 C.3       7 UNK         0.0284 
     36 CB        -70.9048   23.1031  -75.7018 C.3       7 UNK        -0.1958 
     37 N         -72.7913   24.6228  -75.3633 N.am      7 UNK        -0.4454 
     38 C         -73.7573   25.5124  -75.6291 C.2       7 UNK         0.5089 
     39 O         -73.7324   26.2860  -76.5891 O.2       7 UNK        -0.5125 
     40 CA        -74.9237   25.5508  -74.6214 C.3       6 UNK         0.0408 
     41 CB        -74.4876   26.2396  -73.3183 C.3       6 UNK        -0.1791 
     42 N         -76.1038   26.2442  -75.1413 N.am      6 UNK        -0.4762 
     43 C         -76.8630   25.8166  -76.1589 C.2       6 UNK         0.5007 
     44 O         -76.6747   24.7544  -76.7574 O.2       6 UNK        -0.5032 
     45 CA        -78.0213   26.7509  -76.5653 C.3       5 UNK         0.0783 
     46 C46       -77.4823   28.0040  -77.2995 C.3       11 UNK        -0.0857 
     47 S47       -78.7634   29.2968  -77.4033 S.3       11 UNK        -0.2512 
     48 C48       -78.0842   30.5935  -76.3146 C.3       11 UNK         0.0225 
     49 N         -79.0299   26.0608  -77.3771 N.am      5 UNK        -0.4615 
     50 C         -79.8450   25.0898  -76.9540 C.2       4 UNK         0.5053 
     51 O         -79.8820   24.6697  -75.7926 O.2       4 UNK        -0.5105 
     52 CA        -80.7530   24.4694  -78.0236 C.3       4 UNK         0.0263 
     53 CB        -79.9742   23.4422  -78.8629 C.3       4 UNK        -0.1981 
     54 N         -81.8667   23.7961  -77.3649 N.am      4 UNK        -0.4224 
     55 C         -83.1664   23.9694  -77.6324 C.2       3 UNK         0.4895 
     56 O         -83.5916   24.6559  -78.5625 O.2       3 UNK        -0.5091 
     57 CA        -84.1714   23.2573  -76.7038 C.3       3 UNK         0.0250 
     58 CB        -84.7500   22.0106  -77.3934 C.3       3 UNK        -0.1996 
     59 N         -83.5972   22.8663  -75.4105 N.am      3 UNK        -0.4254 
     60 C         -83.2447   23.7224  -74.4409 C.2       2 UNK         0.5004 
     61 O         -83.4369   24.9376  -74.5014 O.2       2 UNK        -0.5226 
     62 CA        -82.5131   23.1467  -73.2219 C.3       2 UNK         0.0269 
     63 CB        -82.4614   21.6038  -73.1621 C.3       2 UNK        -0.1926 
     64 N         -81.1584   23.6882  -73.2349 N.am      2 UNK        -0.4687 
     65 C         -80.4095   23.9398  -72.1549 C.2       1 UNK         0.5165 
     66 O         -80.7699   23.7058  -71.0000 O.2       1 UNK        -0.5079 
     67 H67       -77.7376   22.4863  -75.6216 H         1 UNK         0.0900 
     68 H68       -77.5352   20.9628  -74.7580 H         1 UNK         0.0900 
     69 H69       -76.1871   22.0993  -74.8714 H         1 UNK         0.0900 
     70 H70       -78.6515   24.1608  -74.4699 H         1 UNK         0.2959 
     71 H71       -78.4008   24.3565  -71.5328 H         1 UNK         0.1079 
     72 H72       -78.1086   26.3727  -73.1110 H         1 UNK         0.0837 
     73 H73       -79.8180   26.2896  -73.4481 H         1 UNK         0.0837 
     74 H74       -80.6473   28.5878  -72.4864 H         1 UNK         0.0685 
     75 H75       -79.9108   29.3700  -71.1076 H         1 UNK         0.0685 
     76 H76       -79.8440   29.5700  -74.4927 H         1 UNK         0.1434 
     77 H77       -75.6960   30.5470  -74.9900 H         1 UNK         0.1329 
     78 H78       -77.0887   28.9722  -71.2580 H         1 UNK         0.1335 
     79 H79       -74.6736   29.0159  -71.8012 H         1 UNK         0.0680 
     80 H80       -74.1097   29.7051  -73.3073 H         1 UNK         0.0680 
     81 H81       -72.6392   30.0808  -70.9417 H         1 UNK         0.1032 
     82 H82       -72.8233   31.5376  -70.0070 H         1 UNK         0.1032 
     83 H83       -72.0008   32.9067  -71.9193 H         1 UNK         0.0461 
     84 H84       -69.4528   30.7921  -72.7195 H         1 UNK         0.3453 
     85 H85       -68.4405   31.1496  -71.3411 H         1 UNK         0.3453 
     86 H86       -72.0926   30.4018  -73.4178 H         1 UNK         0.2984 
     87 H87       -72.4903   31.0016  -75.8089 H         1 UNK         0.0554 
     88 H88       -71.2211   31.6578  -77.8327 H         1 UNK         0.0847 
     89 H89       -70.0173   32.4864  -76.8450 H         1 UNK         0.0847 
     90 H90       -71.6712   33.0786  -76.9076 H         1 UNK         0.0847 
     91 H91       -69.7593   30.1244  -76.2398 H         1 UNK         0.3141 
     92 H92       -69.4115   27.8948  -76.2655 H         1 UNK         0.0743 
     93 H93       -68.3438   28.6347  -74.1295 H         1 UNK         0.0784 
     94 H94       -68.2361   26.8879  -74.2735 H         1 UNK         0.0784 
     95 H95       -69.4299   27.6114  -73.1974 H         1 UNK         0.0784 
     96 H96       -71.4769   26.4749  -74.6928 H         1 UNK         0.3213 
     97 H97       -71.9567   24.1993  -77.2170 H         1 UNK         0.0855 
     98 H98       -70.0398   22.8664  -76.3233 H         1 UNK         0.0814 
     99 H99       -71.5706   22.2407  -75.7389 H         1 UNK         0.0814 
    100 H100      -70.5480   23.2113  -74.6767 H         1 UNK         0.0814 
    101 H101      -72.8872   24.0381  -74.5450 H         1 UNK         0.3105 
    102 H102      -75.2146   24.5236  -74.3932 H         1 UNK         0.0547 
    103 H103      -74.1147   27.2458  -73.5085 H         1 UNK         0.0837 
    104 H104      -73.6871   25.6867  -72.8258 H         1 UNK         0.0837 
    105 H105      -75.3111   26.3121  -72.6073 H         1 UNK         0.0837 
    106 H106      -76.2939   27.1516  -74.7403 H         1 UNK         0.3020 
    107 H107      -78.5097   27.0670  -75.6409 H         1 UNK         0.1245 
    108 H108      -77.1553   27.7498  -78.3094 H         1 UNK         0.0781 
    109 H109      -76.6025   28.4170  -76.8026 H         1 UNK         0.0781 
    110 H110      -78.7942   31.4205  -76.2686 H         1 UNK         0.0836 
    111 H111      -77.1798   30.9962  -76.7735 H         1 UNK         0.0836 
    112 H112      -79.0578   26.3245  -78.3507 H         1 UNK         0.3022 
    113 H113      -81.1183   25.2692  -78.6715 H         1 UNK         0.0747 
    114 H114      -80.6119   22.9869  -79.6209 H         1 UNK         0.0793 
    115 H115      -79.1373   23.9105  -79.3827 H         1 UNK         0.0793 
    116 H116      -79.5661   22.6419  -78.2438 H         1 UNK         0.0793 
    117 H117      -81.6139   23.2677  -76.5424 H         1 UNK         0.3047 
    118 H118      -84.9898   23.9558  -76.5154 H         1 UNK         0.0822 
    119 H119      -85.5168   21.5368  -76.7802 H         1 UNK         0.0807 
    120 H120      -83.9782   21.2685  -77.6017 H         1 UNK         0.0807 
    121 H121      -85.2154   22.2717  -78.3451 H         1 UNK         0.0807 
    122 H122      -83.4098   21.8829  -75.2758 H         1 UNK         0.2946 
    123 H123      -83.0441   23.5130  -72.3401 H         1 UNK         0.1144 
    124 H124      -83.4628   21.1715  -73.1808 H         1 UNK         0.0793 
    125 H125      -81.9916   21.2672  -72.2376 H         1 UNK         0.0793 
    126 H126      -81.8912   21.1782  -73.9887 H         1 UNK         0.0793 
    127 H127      -80.7988   23.9706  -74.1420 H         1 UNK         0.2896 
@<TRIPOS>BOND
     1    1    2 1    
     2    1   67 1    
     3    1   68 1    
     4    1   69 1    
     5    2    3 2    
     6    2    4 am   BACKBONE|DICT|INTERRES
     7    4    5 1    
     8    4   70 1    
     9    5    6 1    
    10    5   65 1    
    11    5   71 1    
    12    6    7 1    
    13    6   72 1    
    14    6   73 1    
    15    7    8 1    
    16    8    9 1    
    17    8   74 1    
    18    8   75 1    
    19    9   10 ar   
    20    9   14 ar   
    21   10   11 ar   
    22   10   76 1    
    23   11   12 ar   
    24   11   48 1    
    25   12   13 ar   
    26   12   77 1    
    27   13   14 ar   
    28   13   15 1    
    29   14   78 1    
    30   15   16 1    
    31   15   79 1    
    32   15   80 1    
    33   16   17 1    
    34   17   18 1    
    35   17   81 1    
    36   17   82 1    
    37   18   19 1    
    38   18   22 1    
    39   18   83 1    
    40   19   20 am   BACKBONE|DICT|INTERRES
    41   19   21 2    
    42   20   84 1    
    43   20   85 1    
    44   22   23 am   BACKBONE|DICT|INTERRES
    45   22   86 1    
    46   23   24 2    
    47   23   25 1    
    48   25   26 1    
    49   25   27 1    
    50   25   87 1    
    51   26   88 1    
    52   26   89 1    
    53   26   90 1    
    54   27   28 am   BACKBONE|DICT|INTERRES
    55   27   91 1    
    56   28   29 2    
    57   28   30 1    
    58   30   31 1    
    59   30   32 1    
    60   30   92 1    
    61   31   93 1    
    62   31   94 1    
    63   31   95 1    
    64   32   33 am   BACKBONE|DICT|INTERRES
    65   32   96 1    
    66   33   34 2    
    67   33   35 1    
    68   35   36 1    
    69   35   37 1    
    70   35   97 1    
    71   36   98 1    
    72   36   99 1    
    73   36  100 1    
    74   37   38 am   BACKBONE|DICT|INTERRES
    75   37  101 1    
    76   38   39 2    
    77   38   40 1    
    78   40   41 1    
    79   40   42 1    
    80   40  102 1    
    81   41  103 1    
    82   41  104 1    
    83   41  105 1    
    84   42   43 am   BACKBONE|DICT|INTERRES
    85   42  106 1    
    86   43   44 2    
    87   43   45 1    
    88   45   46 1    
    89   45   49 1    
    90   45  107 1    
    91   46   47 1    
    92   46  108 1    
    93   46  109 1    
    94   47   48 1    
    95   48  110 1    
    96   48  111 1    
    97   49   50 am   BACKBONE|DICT|INTERRES
    98   49  112 1    
    99   50   51 2    
   100   50   52 1    
   101   52   53 1    
   102   52   54 1    
   103   52  113 1    
   104   53  114 1    
   105   53  115 1    
   106   53  116 1    
   107   54   55 am   BACKBONE|DICT|INTERRES
   108   54  117 1    
   109   55   56 2    
   110   55   57 1    
   111   57   58 1    
   112   57   59 1    
   113   57  118 1    
   114   58  119 1    
   115   58  120 1    
   116   58  121 1    
   117   59   60 am   BACKBONE|DICT|INTERRES
   118   59  122 1    
   119   60   61 2    
   120   60   62 1    
   121   62   63 1    
   122   62   64 1    
   123   62  123 1    
   124   63  124 1    
   125   63  125 1    
   126   63  126 1    
   127   64   65 am   BACKBONE|DICT|INTERRES
   128   64  127 1    
   129   65   66 2    
@<TRIPOS>SUBSTRUCTURE
     1 UNK         1 GROUP             0       ****    0 ROOT    
