@<TRIPOS>MOLECULE
3R135
127   129    1
SMALL
USER_CHARGES


@<TRIPOS>ATOM
      1 CA        -76.2421   26.2682  -69.3853 C.3       0 UNK        -0.1998 
      2 C         -77.5945   25.8672  -69.9547 C.2       0 UNK         0.4909 
      3 O         -78.4556   25.3946  -69.2127 O.2       0 UNK        -0.5240 
      4 N         -77.7882   26.0579  -71.2667 N.am      1 UNK        -0.4739 
      5 CA        -79.0222   25.7266  -71.9923 C.3       1 UNK         0.0864 
      6 C6        -79.0282   26.3692  -73.4050 C.3       11 UNK        -0.0881 
      7 S7        -80.6759   26.9323  -73.9505 S.3       11 UNK        -0.2682 
      8 C8        -80.9902   28.3814  -72.8845 C.3       11 UNK         0.0289 
      9 C9        -79.8466   29.3849  -72.9075 C.ar      11 UNK        -0.0687 
     10 C10       -79.7325   30.3056  -73.9521 C.ar      11 UNK        -0.0823 
     11 C11       -78.6651   31.2088  -73.9848 C.ar      11 UNK        -0.0830 
     12 C12       -77.7114   31.1879  -72.9623 C.ar      11 UNK        -0.1021 
     13 C13       -77.8144   30.2678  -71.9154 C.ar      11 UNK        -0.0753 
     14 C14       -78.8923   29.3803  -71.8860 C.ar      11 UNK        -0.0933 
     15 C15       -76.7631   30.2207  -70.8182 C.3       11 UNK         0.0166 
     16 S16       -75.2618   29.3594  -71.3811 S.3       11 UNK        -0.2615 
     17 C17       -74.1423   30.7771  -71.6629 C.3       11 UNK        -0.0865 
     18 CA        -72.7220   30.3774  -72.1396 C.3       10 UNK         0.0862 
     19 C         -71.9198   29.6128  -71.0424 C.2       10 UNK         0.5551 
     20 N         -71.5196   28.3627  -71.2495 N.am      10 UNK        -0.7319 
     21 O         -71.6442   30.1758  -69.9857 O.2       10 UNK        -0.5018 
     22 N         -72.7666   29.7206  -73.4524 N.am      10 UNK        -0.4509 
     23 C         -71.7245   29.5913  -74.2836 C.2       10 UNK         0.4899 
     24 O         -70.6311   30.1270  -74.0947 O.2       10 UNK        -0.4839 
     25 CA        -71.9426   28.7109  -75.5310 C.3       9 UNK         0.0222 
     26 CB        -70.6300   28.1063  -76.0712 C.3       9 UNK        -0.1966 
     27 N         -72.9506   27.6597  -75.3425 N.am      9 UNK        -0.4218 
     28 C         -72.9456   26.6728  -74.4324 C.2       9 UNK         0.5020 
     29 O         -72.0784   26.5334  -73.5685 O.2       9 UNK        -0.5274 
     30 CA        -74.1232   25.6858  -74.4798 C.3       8 UNK         0.0270 
     31 CB        -75.3131   26.2263  -73.6732 C.3       8 UNK        -0.1976 
     32 N         -74.5593   25.3886  -75.8448 N.am      8 UNK        -0.4313 
     33 C         -73.8575   24.6634  -76.7274 C.2       8 UNK         0.5041 
     34 O         -72.7882   24.1095  -76.4692 O.2       8 UNK        -0.5577 
     35 CA        -74.4432   24.5481  -78.1428 C.3       7 UNK         0.0284 
     36 CB        -75.5514   23.4835  -78.1977 C.3       7 UNK        -0.1958 
     37 N         -74.9616   25.8328  -78.6162 N.am      7 UNK        -0.4454 
     38 C         -74.1942   26.8314  -79.0750 C.2       7 UNK         0.5089 
     39 O         -72.9724   26.7545  -79.2037 O.2       7 UNK        -0.5125 
     40 CA        -74.9057   28.1413  -79.4599 C.3       6 UNK         0.0408 
     41 CB        -75.2232   28.1550  -80.9635 C.3       6 UNK        -0.1791 
     42 N         -76.1369   28.3895  -78.7038 N.am      6 UNK        -0.4762 
     43 C         -76.1794   28.6821  -77.3953 C.2       6 UNK         0.5007 
     44 O         -75.1837   28.7356  -76.6743 O.2       6 UNK        -0.5032 
     45 CA        -77.5816   28.8807  -76.7815 C.3       5 UNK         0.0783 
     46 C46       -78.1779   30.2623  -77.1557 C.3       11 UNK        -0.0857 
     47 S47       -77.3182   31.6638  -76.3612 S.3       11 UNK        -0.2512 
     48 C48       -78.5363   32.2089  -75.1230 C.3       11 UNK         0.0225 
     49 N         -78.5042   27.7945  -77.1398 N.am      5 UNK        -0.4615 
     50 C         -78.2876   26.4882  -76.9421 C.2       4 UNK         0.5053 
     51 O         -77.2575   26.0227  -76.4455 O.2       4 UNK        -0.5105 
     52 CA        -79.3883   25.5345  -77.4134 C.3       4 UNK         0.0263 
     53 CB        -79.3576   25.3881  -78.9473 C.3       4 UNK        -0.1981 
     54 N         -79.1722   24.2356  -76.7822 N.am      4 UNK        -0.4224 
     55 C         -80.0853   23.2655  -76.6549 C.2       3 UNK         0.4895 
     56 O         -81.2470   23.3570  -77.0521 O.2       3 UNK        -0.5091 
     57 CA        -79.6280   21.9794  -75.9577 C.3       3 UNK         0.0250 
     58 CB        -78.7126   21.1409  -76.8706 C.3       3 UNK        -0.1996 
     59 N         -78.9639   22.2816  -74.6894 N.am      3 UNK        -0.4254 
     60 C         -78.8849   21.4451  -73.6466 C.2       2 UNK         0.5004 
     61 O         -79.3223   20.2937  -73.6572 O.2       2 UNK        -0.5226 
     62 CA        -78.2020   21.9725  -72.3695 C.3       2 UNK         0.0269 
     63 CB        -76.7560   21.4562  -72.2855 C.3       2 UNK        -0.1926 
     64 N         -78.1889   23.4348  -72.2507 N.am      2 UNK        -0.4687 
     65 C         -79.2726   24.2064  -72.0746 C.2       1 UNK         0.5165 
     66 O         -80.4188   23.7660  -71.9841 O.2       1 UNK        -0.5079 
     67 H67       -75.8301   25.4564  -68.7864 H         1 UNK         0.0900 
     68 H68       -76.3496   27.1440  -68.7459 H         1 UNK         0.0900 
     69 H69       -75.5227   26.5060  -70.1682 H         1 UNK         0.0900 
     70 H70       -77.0544   26.4862  -71.8113 H         1 UNK         0.2959 
     71 H71       -79.8434   26.1436  -71.4063 H         1 UNK         0.1079 
     72 H72       -78.3493   27.2203  -73.4589 H         1 UNK         0.0837 
     73 H73       -78.6423   25.6767  -74.1531 H         1 UNK         0.0837 
     74 H74       -81.1826   28.0470  -71.8644 H         1 UNK         0.0685 
     75 H75       -81.9087   28.8672  -73.2170 H         1 UNK         0.0685 
     76 H76       -80.4708   30.3095  -74.7422 H         1 UNK         0.1434 
     77 H77       -76.8814   31.8800  -72.9904 H         1 UNK         0.1329 
     78 H78       -78.9770   28.6679  -71.0772 H         1 UNK         0.1335 
     79 H79       -76.5270   31.2323  -70.4851 H         1 UNK         0.0680 
     80 H80       -77.1526   29.6987  -69.9428 H         1 UNK         0.0680 
     81 H81       -74.5980   31.4391  -72.4001 H         1 UNK         0.1032 
     82 H82       -74.0767   31.3617  -70.7431 H         1 UNK         0.1032 
     83 H83       -72.1769   31.3121  -72.2852 H         1 UNK         0.0461 
     84 H84       -70.9977   27.8891  -70.5302 H         1 UNK         0.3453 
     85 H85       -71.7396   27.8774  -72.1128 H         1 UNK         0.3453 
     86 H86       -73.6259   29.2405  -73.6753 H         1 UNK         0.2984 
     87 H87       -72.3420   29.3729  -76.3005 H         1 UNK         0.0554 
     88 H88       -70.8102   27.5046  -76.9625 H         1 UNK         0.0847 
     89 H89       -70.1436   27.4710  -75.3302 H         1 UNK         0.0847 
     90 H90       -69.9207   28.8873  -76.3473 H         1 UNK         0.0847 
     91 H91       -73.7700   27.7535  -75.9396 H         1 UNK         0.3141 
     92 H92       -73.7927   24.7529  -74.0180 H         1 UNK         0.0743 
     93 H93       -75.0162   26.4400  -72.6459 H         1 UNK         0.0784 
     94 H94       -75.7086   27.1488  -74.1018 H         1 UNK         0.0784 
     95 H95       -76.1208   25.4965  -73.6418 H         1 UNK         0.0784 
     96 H96       -75.4638   25.7607  -76.1283 H         1 UNK         0.3213 
     97 H97       -73.6399   24.2296  -78.8113 H         1 UNK         0.0855 
     98 H98       -76.3866   23.7310  -77.5448 H         1 UNK         0.0814 
     99 H99       -75.1705   22.5112  -77.8825 H         1 UNK         0.0814 
    100 H100      -75.9397   23.3660  -79.2095 H         1 UNK         0.0814 
    101 H101      -75.9502   26.0017  -78.5035 H         1 UNK         0.3105 
    102 H102      -74.2145   28.9611  -79.2519 H         1 UNK         0.0547 
    103 H103      -75.9282   27.3688  -81.2363 H         1 UNK         0.0837 
    104 H104      -75.6478   29.1106  -81.2718 H         1 UNK         0.0837 
    105 H105      -74.3191   28.0001  -81.5540 H         1 UNK         0.0837 
    106 H106      -77.0057   28.3475  -79.2171 H         1 UNK         0.3020 
    107 H107      -77.4645   28.8413  -75.6954 H         1 UNK         0.1245 
    108 H108      -79.2315   30.3008  -76.8771 H         1 UNK         0.0781 
    109 H109      -78.1612   30.4161  -78.2364 H         1 UNK         0.0781 
    110 H110      -78.2222   33.1741  -74.7228 H         1 UNK         0.0836 
    111 H111      -79.5006   32.3818  -75.6035 H         1 UNK         0.0836 
    112 H112      -79.3787   28.0771  -77.5579 H         1 UNK         0.3022 
    113 H113      -80.3530   25.9336  -77.0927 H         1 UNK         0.0747 
    114 H114      -79.5012   26.3494  -79.4419 H         1 UNK         0.0793 
    115 H115      -80.1507   24.7283  -79.2995 H         1 UNK         0.0793 
    116 H116      -78.4078   24.9788  -79.2940 H         1 UNK         0.0793 
    117 H117      -78.2339   24.1125  -76.4257 H         1 UNK         0.3047 
    118 H118      -80.5282   21.3971  -75.7472 H         1 UNK         0.0822 
    119 H119      -79.1846   20.9590  -77.8371 H         1 UNK         0.0807 
    120 H120      -78.4981   20.1674  -76.4295 H         1 UNK         0.0807 
    121 H121      -77.7605   21.6369  -77.0588 H         1 UNK         0.0807 
    122 H122      -78.6237   23.2227  -74.5644 H         1 UNK         0.2946 
    123 H123      -78.7611   21.5727  -71.5203 H         1 UNK         0.1144 
    124 H124      -76.1413   21.8403  -73.1007 H         1 UNK         0.0793 
    125 H125      -76.7264   20.3669  -72.3411 H         1 UNK         0.0793 
    126 H126      -76.2856   21.7423  -71.3446 H         1 UNK         0.0793 
    127 H127      -77.2844   23.8821  -72.2732 H         1 UNK         0.2896 
@<TRIPOS>BOND
     1    1    2 1    
     2    1   67 1    
     3    1   68 1    
     4    1   69 1    
     5    2    3 2    
     6    2    4 am   BACKBONE|DICT|INTERRES
     7    4    5 1    
     8    4   70 1    
     9    5    6 1    
    10    5   65 1    
    11    5   71 1    
    12    6    7 1    
    13    6   72 1    
    14    6   73 1    
    15    7    8 1    
    16    8    9 1    
    17    8   74 1    
    18    8   75 1    
    19    9   10 ar   
    20    9   14 ar   
    21   10   11 ar   
    22   10   76 1    
    23   11   12 ar   
    24   11   48 1    
    25   12   13 ar   
    26   12   77 1    
    27   13   14 ar   
    28   13   15 1    
    29   14   78 1    
    30   15   16 1    
    31   15   79 1    
    32   15   80 1    
    33   16   17 1    
    34   17   18 1    
    35   17   81 1    
    36   17   82 1    
    37   18   19 1    
    38   18   22 1    
    39   18   83 1    
    40   19   20 am   BACKBONE|DICT|INTERRES
    41   19   21 2    
    42   20   84 1    
    43   20   85 1    
    44   22   23 am   BACKBONE|DICT|INTERRES
    45   22   86 1    
    46   23   24 2    
    47   23   25 1    
    48   25   26 1    
    49   25   27 1    
    50   25   87 1    
    51   26   88 1    
    52   26   89 1    
    53   26   90 1    
    54   27   28 am   BACKBONE|DICT|INTERRES
    55   27   91 1    
    56   28   29 2    
    57   28   30 1    
    58   30   31 1    
    59   30   32 1    
    60   30   92 1    
    61   31   93 1    
    62   31   94 1    
    63   31   95 1    
    64   32   33 am   BACKBONE|DICT|INTERRES
    65   32   96 1    
    66   33   34 2    
    67   33   35 1    
    68   35   36 1    
    69   35   37 1    
    70   35   97 1    
    71   36   98 1    
    72   36   99 1    
    73   36  100 1    
    74   37   38 am   BACKBONE|DICT|INTERRES
    75   37  101 1    
    76   38   39 2    
    77   38   40 1    
    78   40   41 1    
    79   40   42 1    
    80   40  102 1    
    81   41  103 1    
    82   41  104 1    
    83   41  105 1    
    84   42   43 am   BACKBONE|DICT|INTERRES
    85   42  106 1    
    86   43   44 2    
    87   43   45 1    
    88   45   46 1    
    89   45   49 1    
    90   45  107 1    
    91   46   47 1    
    92   46  108 1    
    93   46  109 1    
    94   47   48 1    
    95   48  110 1    
    96   48  111 1    
    97   49   50 am   BACKBONE|DICT|INTERRES
    98   49  112 1    
    99   50   51 2    
   100   50   52 1    
   101   52   53 1    
   102   52   54 1    
   103   52  113 1    
   104   53  114 1    
   105   53  115 1    
   106   53  116 1    
   107   54   55 am   BACKBONE|DICT|INTERRES
   108   54  117 1    
   109   55   56 2    
   110   55   57 1    
   111   57   58 1    
   112   57   59 1    
   113   57  118 1    
   114   58  119 1    
   115   58  120 1    
   116   58  121 1    
   117   59   60 am   BACKBONE|DICT|INTERRES
   118   59  122 1    
   119   60   61 2    
   120   60   62 1    
   121   62   63 1    
   122   62   64 1    
   123   62  123 1    
   124   63  124 1    
   125   63  125 1    
   126   63  126 1    
   127   64   65 am   BACKBONE|DICT|INTERRES
   128   64  127 1    
   129   65   66 2    
@<TRIPOS>SUBSTRUCTURE
     1 UNK         1 GROUP             0       ****    0 ROOT    
