@<TRIPOS>MOLECULE
3R135
127   129    1
SMALL
USER_CHARGES


@<TRIPOS>ATOM
      1 CA        -81.7786   21.8542  -72.7039 C.3       0 UNK        -0.1998 
      2 C         -81.2380   23.2757  -72.7163 C.2       0 UNK         0.4909 
      3 O         -80.0488   23.4722  -72.9616 O.2       0 UNK        -0.5240 
      4 N         -82.1087   24.2635  -72.4668 N.am      1 UNK        -0.4739 
      5 CA        -81.8094   25.7006  -72.3949 C.3       1 UNK         0.0864 
      6 C6        -81.0051   26.0787  -71.1201 C.3       11 UNK        -0.0881 
      7 S7        -81.5382   27.6933  -70.4632 S.3       11 UNK        -0.2682 
      8 C8        -79.9994   28.3223  -69.7210 C.3       11 UNK         0.0289 
      9 C9        -78.9680   28.7790  -70.7470 C.ar      11 UNK        -0.0687 
     10 C10       -79.3196   29.6621  -71.7745 C.ar      11 UNK        -0.0823 
     11 C11       -78.3596   30.1358  -72.6751 C.ar      11 UNK        -0.0830 
     12 C12       -77.0284   29.7331  -72.5212 C.ar      11 UNK        -0.1021 
     13 C13       -76.6664   28.8381  -71.5103 C.ar      11 UNK        -0.0753 
     14 C14       -77.6396   28.3615  -70.6291 C.ar      11 UNK        -0.0933 
     15 C15       -75.2187   28.4055  -71.3607 C.3       11 UNK         0.0166 
     16 S16       -74.2640   29.6738  -70.4727 S.3       11 UNK        -0.2615 
     17 C17       -72.5685   29.0150  -70.6028 C.3       11 UNK        -0.0865 
     18 CA        -71.7813   29.6624  -71.7709 C.3       10 UNK         0.0862 
     19 C         -70.2853   29.2585  -71.7203 C.2       10 UNK         0.5551 
     20 N         -69.3979   30.1849  -71.3863 N.am      10 UNK        -0.7319 
     21 O         -69.9339   28.1005  -71.9359 O.2       10 UNK        -0.5018 
     22 N         -72.3715   29.3016  -73.0633 N.am      10 UNK        -0.4509 
     23 C         -72.2043   29.9673  -74.2108 C.2       10 UNK         0.4899 
     24 O         -71.5959   31.0345  -74.3051 O.2       10 UNK        -0.4839 
     25 CA        -72.8381   29.3146  -75.4568 C.3       9 UNK         0.0222 
     26 CB        -72.3118   29.9033  -76.7829 C.3       9 UNK        -0.1966 
     27 N         -72.7229   27.8488  -75.4451 N.am      9 UNK        -0.4218 
     28 C         -71.5857   27.1343  -75.4200 C.2       9 UNK         0.5020 
     29 O         -70.4555   27.6185  -75.4877 O.2       9 UNK        -0.5274 
     30 CA        -71.7383   25.6160  -75.2845 C.3       8 UNK         0.0270 
     31 CB        -72.0662   25.2248  -73.8320 C.3       8 UNK        -0.1976 
     32 N         -72.7684   25.1022  -76.1893 N.am      8 UNK        -0.4313 
     33 C         -72.5077   24.6265  -77.4137 C.2       8 UNK         0.5041 
     34 O         -71.3824   24.5964  -77.9148 O.2       8 UNK        -0.5577 
     35 CA        -73.6883   24.0493  -78.2044 C.3       7 UNK         0.0284 
     36 CB        -74.1001   22.6808  -77.6357 C.3       7 UNK        -0.1958 
     37 N         -74.8496   24.9394  -78.2519 N.am      7 UNK        -0.4454 
     38 C         -74.9504   25.9938  -79.0731 C.2       7 UNK         0.5089 
     39 O         -74.0302   26.4005  -79.7834 O.2       7 UNK        -0.5125 
     40 CA        -76.3232   26.6824  -79.1583 C.3       6 UNK         0.0408 
     41 CB        -77.3308   25.7961  -79.9087 C.3       6 UNK        -0.1791 
     42 N         -76.8637   27.0336  -77.8470 N.am      6 UNK        -0.4762 
     43 C         -76.4294   28.0575  -77.1003 C.2       6 UNK         0.5007 
     44 O         -75.5533   28.8409  -77.4644 O.2       6 UNK        -0.5032 
     45 CA        -77.0600   28.2217  -75.7011 C.3       5 UNK         0.0783 
     46 C46       -78.3434   29.0936  -75.7377 C.3       11 UNK        -0.0857 
     47 S47       -77.9635   30.8436  -75.3919 S.3       11 UNK        -0.2512 
     48 C48       -78.7813   31.1082  -73.7773 C.3       11 UNK         0.0225 
     49 N         -77.2801   26.9410  -75.0262 N.am      5 UNK        -0.4615 
     50 C         -76.3012   26.0936  -74.6836 C.2       4 UNK         0.5053 
     51 O         -75.1038   26.3136  -74.8760 O.2       4 UNK        -0.5105 
     52 CA        -76.7317   24.7567  -74.0624 C.3       4 UNK         0.0263 
     53 CB        -77.0175   24.9320  -72.5633 C.3       4 UNK        -0.1981 
     54 N         -77.9018   24.1806  -74.7320 N.am      4 UNK        -0.4224 
     55 C         -77.9240   23.8023  -76.0195 C.2       3 UNK         0.4895 
     56 O         -76.9444   23.8418  -76.7612 O.2       3 UNK        -0.5091 
     57 CA        -79.2753   23.3678  -76.6037 C.3       3 UNK         0.0250 
     58 CB        -79.6434   21.9435  -76.1594 C.3       3 UNK        -0.1996 
     59 N         -80.3462   24.3057  -76.2628 N.am      3 UNK        -0.4254 
     60 C         -80.4030   25.5755  -76.6933 C.2       2 UNK         0.5004 
     61 O         -79.5818   26.0769  -77.4593 O.2       2 UNK        -0.5226 
     62 CA        -81.5515   26.4463  -76.1589 C.3       2 UNK         0.0269 
     63 CB        -82.7626   26.3806  -77.1024 C.3       2 UNK        -0.1926 
     64 N         -81.9673   26.0821  -74.8017 N.am      2 UNK        -0.4687 
     65 C         -81.1970   26.2252  -73.7134 C.2       1 UNK         0.5165 
     66 O         -80.0520   26.6805  -73.7520 O.2       1 UNK        -0.5079 
     67 H67       -82.7996   21.8099  -72.3254 H         1 UNK         0.0900 
     68 H68       -81.1566   21.2234  -72.0695 H         1 UNK         0.0900 
     69 H69       -81.7706   21.4383  -73.7107 H         1 UNK         0.0900 
     70 H70       -83.0747   24.0220  -72.2915 H         1 UNK         0.2959 
     71 H71       -82.7899   26.1748  -72.3218 H         1 UNK         0.1079 
     72 H72       -81.1838   25.3482  -70.3296 H         1 UNK         0.0837 
     73 H73       -79.9277   26.0616  -71.2913 H         1 UNK         0.0837 
     74 H74       -79.5868   27.5543  -69.0647 H         1 UNK         0.0685 
     75 H75       -80.2455   29.1713  -69.0821 H         1 UNK         0.0685 
     76 H76       -80.3466   29.9886  -71.8641 H         1 UNK         0.1434 
     77 H77       -76.2675   30.1192  -73.1846 H         1 UNK         0.1329 
     78 H78       -77.3554   27.6853  -69.8345 H         1 UNK         0.1335 
     79 H79       -75.1535   27.4586  -70.8225 H         1 UNK         0.0680 
     80 H80       -74.7926   28.2307  -72.3488 H         1 UNK         0.0680 
     81 H81       -72.0700   29.2212  -69.6535 H         1 UNK         0.1032 
     82 H82       -72.5932   27.9274  -70.6969 H         1 UNK         0.1032 
     83 H83       -71.8499   30.7470  -71.6598 H         1 UNK         0.0461 
     84 H84       -68.4231   29.9338  -71.3327 H         1 UNK         0.3453 
     85 H85       -69.6814   31.1352  -71.2035 H         1 UNK         0.3453 
     86 H86       -72.8400   28.4105  -73.0984 H         1 UNK         0.2984 
     87 H87       -73.9042   29.5359  -75.3995 H         1 UNK         0.0554 
     88 H88       -72.5293   30.9698  -76.8493 H         1 UNK         0.0847 
     89 H89       -72.7828   29.4244  -77.6415 H         1 UNK         0.0847 
     90 H90       -71.2325   29.7848  -76.8817 H         1 UNK         0.0847 
     91 H91       -73.5994   27.3374  -75.3627 H         1 UNK         0.3141 
     92 H92       -70.7746   25.1636  -75.5294 H         1 UNK         0.0743 
     93 H93       -71.2915   25.5824  -73.1519 H         1 UNK         0.0784 
     94 H94       -73.0125   25.6436  -73.4907 H         1 UNK         0.0784 
     95 H95       -72.1210   24.1421  -73.7186 H         1 UNK         0.0784 
     96 H96       -73.7297   25.1617  -75.8710 H         1 UNK         0.3213 
     97 H97       -73.3469   23.8858  -79.2293 H         1 UNK         0.0855 
     98 H98       -74.4536   22.7569  -76.6067 H         1 UNK         0.0814 
     99 H99       -73.2582   21.9872  -77.6402 H         1 UNK         0.0814 
    100 H100      -74.8957   22.2288  -78.2283 H         1 UNK         0.0814 
    101 H101      -75.6627   24.6565  -77.7044 H         1 UNK         0.3105 
    102 H102      -76.1997   27.6019  -79.7347 H         1 UNK         0.0547 
    103 H103      -76.9523   25.5199  -80.8936 H         1 UNK         0.0837 
    104 H104      -77.5419   24.8728  -79.3677 H         1 UNK         0.0837 
    105 H105      -78.2776   26.3152  -80.0586 H         1 UNK         0.0837 
    106 H106      -77.6410   26.4744  -77.5064 H         1 UNK         0.3020 
    107 H107      -76.3067   28.7315  -75.0986 H         1 UNK         0.1245 
    108 H108      -79.0654   28.7516  -74.9961 H         1 UNK         0.0781 
    109 H109      -78.8640   29.0193  -76.6947 H         1 UNK         0.0781 
    110 H110      -78.5698   32.1244  -73.4425 H         1 UNK         0.0836 
    111 H111      -79.8599   31.0557  -73.9347 H         1 UNK         0.0836 
    112 H112      -78.2367   26.7089  -74.7790 H         1 UNK         0.3022 
    113 H113      -75.9037   24.0540  -74.1751 H         1 UNK         0.0747 
    114 H114      -76.1396   25.3130  -72.0401 H         1 UNK         0.0793 
    115 H115      -77.2903   23.9851  -72.0973 H         1 UNK         0.0793 
    116 H116      -77.8319   25.6363  -72.3898 H         1 UNK         0.0793 
    117 H117      -78.7467   24.0827  -74.1712 H         1 UNK         0.3047 
    118 H118      -79.1775   23.3637  -77.6917 H         1 UNK         0.0822 
    119 H119      -78.8867   21.2303  -76.4889 H         1 UNK         0.0807 
    120 H120      -80.5945   21.6254  -76.5867 H         1 UNK         0.0807 
    121 H121      -79.7141   21.8578  -75.0757 H         1 UNK         0.0807 
    122 H122      -81.0473   23.9891  -75.6101 H         1 UNK         0.2946 
    123 H123      -81.1902   27.4772  -76.1350 H         1 UNK         0.1144 
    124 H124      -82.4816   26.6682  -78.1167 H         1 UNK         0.0793 
    125 H125      -83.5526   27.0604  -76.7827 H         1 UNK         0.0793 
    126 H126      -83.1829   25.3754  -77.1535 H         1 UNK         0.0793 
    127 H127      -82.8874   25.6784  -74.6978 H         1 UNK         0.2896 
@<TRIPOS>BOND
     1    1    2 1    
     2    1   67 1    
     3    1   68 1    
     4    1   69 1    
     5    2    3 2    
     6    2    4 am   BACKBONE|DICT|INTERRES
     7    4    5 1    
     8    4   70 1    
     9    5    6 1    
    10    5   65 1    
    11    5   71 1    
    12    6    7 1    
    13    6   72 1    
    14    6   73 1    
    15    7    8 1    
    16    8    9 1    
    17    8   74 1    
    18    8   75 1    
    19    9   10 ar   
    20    9   14 ar   
    21   10   11 ar   
    22   10   76 1    
    23   11   12 ar   
    24   11   48 1    
    25   12   13 ar   
    26   12   77 1    
    27   13   14 ar   
    28   13   15 1    
    29   14   78 1    
    30   15   16 1    
    31   15   79 1    
    32   15   80 1    
    33   16   17 1    
    34   17   18 1    
    35   17   81 1    
    36   17   82 1    
    37   18   19 1    
    38   18   22 1    
    39   18   83 1    
    40   19   20 am   BACKBONE|DICT|INTERRES
    41   19   21 2    
    42   20   84 1    
    43   20   85 1    
    44   22   23 am   BACKBONE|DICT|INTERRES
    45   22   86 1    
    46   23   24 2    
    47   23   25 1    
    48   25   26 1    
    49   25   27 1    
    50   25   87 1    
    51   26   88 1    
    52   26   89 1    
    53   26   90 1    
    54   27   28 am   BACKBONE|DICT|INTERRES
    55   27   91 1    
    56   28   29 2    
    57   28   30 1    
    58   30   31 1    
    59   30   32 1    
    60   30   92 1    
    61   31   93 1    
    62   31   94 1    
    63   31   95 1    
    64   32   33 am   BACKBONE|DICT|INTERRES
    65   32   96 1    
    66   33   34 2    
    67   33   35 1    
    68   35   36 1    
    69   35   37 1    
    70   35   97 1    
    71   36   98 1    
    72   36   99 1    
    73   36  100 1    
    74   37   38 am   BACKBONE|DICT|INTERRES
    75   37  101 1    
    76   38   39 2    
    77   38   40 1    
    78   40   41 1    
    79   40   42 1    
    80   40  102 1    
    81   41  103 1    
    82   41  104 1    
    83   41  105 1    
    84   42   43 am   BACKBONE|DICT|INTERRES
    85   42  106 1    
    86   43   44 2    
    87   43   45 1    
    88   45   46 1    
    89   45   49 1    
    90   45  107 1    
    91   46   47 1    
    92   46  108 1    
    93   46  109 1    
    94   47   48 1    
    95   48  110 1    
    96   48  111 1    
    97   49   50 am   BACKBONE|DICT|INTERRES
    98   49  112 1    
    99   50   51 2    
   100   50   52 1    
   101   52   53 1    
   102   52   54 1    
   103   52  113 1    
   104   53  114 1    
   105   53  115 1    
   106   53  116 1    
   107   54   55 am   BACKBONE|DICT|INTERRES
   108   54  117 1    
   109   55   56 2    
   110   55   57 1    
   111   57   58 1    
   112   57   59 1    
   113   57  118 1    
   114   58  119 1    
   115   58  120 1    
   116   58  121 1    
   117   59   60 am   BACKBONE|DICT|INTERRES
   118   59  122 1    
   119   60   61 2    
   120   60   62 1    
   121   62   63 1    
   122   62   64 1    
   123   62  123 1    
   124   63  124 1    
   125   63  125 1    
   126   63  126 1    
   127   64   65 am   BACKBONE|DICT|INTERRES
   128   64  127 1    
   129   65   66 2    
@<TRIPOS>SUBSTRUCTURE
     1 UNK         1 GROUP             0       ****    0 ROOT    
