@<TRIPOS>MOLECULE
3R135
127   129    1
SMALL
USER_CHARGES


@<TRIPOS>ATOM
      1 CA        -84.6382   29.4904  -72.9005 C.3       0 UNK        -0.1998 
      2 C         -83.5458   28.6566  -73.5527 C.2       0 UNK         0.4909 
      3 O         -83.4418   27.4666  -73.2591 O.2       0 UNK        -0.5240 
      4 N         -82.7619   29.2774  -74.4472 N.am      1 UNK        -0.4739 
      5 CA        -81.5926   28.7896  -75.2062 C.3       1 UNK         0.0864 
      6 C6        -80.3079   28.6264  -74.3458 C.3       11 UNK        -0.0881 
      7 S7        -80.2148   27.1011  -73.3418 S.3       11 UNK        -0.2682 
      8 C8        -79.7904   27.7548  -71.6996 C.3       11 UNK         0.0289 
      9 C9        -78.2824   27.8181  -71.5109 C.ar      11 UNK        -0.0687 
     10 C10       -77.6232   26.7892  -70.8339 C.ar      11 UNK        -0.0823 
     11 C11       -76.2361   26.8223  -70.6617 C.ar      11 UNK        -0.0830 
     12 C12       -75.5073   27.9053  -71.1634 C.ar      11 UNK        -0.1021 
     13 C13       -76.1575   28.9468  -71.8335 C.ar      11 UNK        -0.0753 
     14 C14       -77.5446   28.8970  -72.0062 C.ar      11 UNK        -0.0933 
     15 C15       -75.3683   30.1378  -72.3523 C.3       11 UNK         0.0166 
     16 S16       -74.7007   29.8248  -74.0146 S.3       11 UNK        -0.2615 
     17 C17       -74.1160   31.4959  -74.4696 C.3       11 UNK        -0.0865 
     18 CA        -72.5827   31.6917  -74.3513 C.3       10 UNK         0.0862 
     19 C         -72.0990   31.7007  -72.8696 C.2       10 UNK         0.5551 
     20 N         -71.2613   30.7686  -72.4299 N.am      10 UNK        -0.7319 
     21 O         -72.4875   32.5824  -72.1075 O.2       10 UNK        -0.5018 
     22 N         -71.8482   30.7806  -75.2411 N.am      10 UNK        -0.4509 
     23 C         -70.5885   30.9760  -75.6514 C.2       10 UNK         0.4899 
     24 O         -69.9598   32.0135  -75.4338 O.2       10 UNK        -0.4839 
     25 CA        -69.9133   29.8292  -76.4350 C.3       9 UNK         0.0222 
     26 CB        -68.3792   29.8378  -76.2671 C.3       9 UNK        -0.1966 
     27 N         -70.4369   28.4859  -76.1474 N.am      9 UNK        -0.4218 
     28 C         -70.5432   27.8721  -74.9602 C.2       9 UNK         0.5020 
     29 O         -70.2751   28.4173  -73.8873 O.2       9 UNK        -0.5274 
     30 CA        -71.0278   26.4056  -74.9791 C.3       8 UNK         0.0270 
     31 CB        -71.3366   25.8744  -73.5661 C.3       8 UNK        -0.1976 
     32 N         -72.1891   26.1707  -75.8511 N.am      8 UNK        -0.4313 
     33 C         -72.1491   26.0968  -77.1920 C.2       8 UNK         0.5041 
     34 O         -71.1229   26.3127  -77.8389 O.2       8 UNK        -0.5577 
     35 CA        -73.4320   25.7282  -77.9619 C.3       7 UNK         0.0284 
     36 CB        -73.3183   24.3075  -78.5381 C.3       7 UNK        -0.1958 
     37 N         -74.6501   25.8173  -77.1594 N.am      7 UNK        -0.4454 
     38 C         -75.2559   26.9624  -76.8128 C.2       7 UNK         0.5089 
     39 O         -74.8903   28.0699  -77.2070 O.2       7 UNK        -0.5125 
     40 CA        -76.4690   26.8562  -75.8644 C.3       6 UNK         0.0408 
     41 CB        -77.7638   26.9430  -76.6853 C.3       6 UNK        -0.1791 
     42 N         -76.4956   25.6332  -75.0489 N.am      6 UNK        -0.4762 
     43 C         -75.5154   25.2391  -74.2161 C.2       6 UNK         0.5007 
     44 O         -74.4956   25.9016  -74.0334 O.2       6 UNK        -0.5032 
     45 CA        -75.6182   23.8349  -73.5684 C.3       5 UNK         0.0783 
     46 C46       -75.9816   23.8833  -72.0641 C.3       11 UNK        -0.0857 
     47 S47       -74.6417   24.5564  -71.0200 S.3       11 UNK        -0.2512 
     48 C48       -75.5343   25.6966  -69.9132 C.3       11 UNK         0.0225 
     49 N         -76.5242   22.9330  -74.2859 N.am      5 UNK        -0.4615 
     50 C         -76.3809   22.5195  -75.5525 C.2       4 UNK         0.5053 
     51 O         -75.4130   22.8055  -76.2574 O.2       4 UNK        -0.5105 
     52 CA        -77.5376   21.6921  -76.1468 C.3       4 UNK         0.0263 
     53 CB        -77.2101   20.1919  -76.0822 C.3       4 UNK        -0.1981 
     54 N         -78.8419   21.9340  -75.5101 N.am      4 UNK        -0.4224 
     55 C         -79.4694   23.1189  -75.4756 C.2       3 UNK         0.4895 
     56 O         -79.0011   24.1495  -75.9601 O.2       3 UNK        -0.5091 
     57 CA        -80.7987   23.1700  -74.7061 C.3       3 UNK         0.0250 
     58 CB        -80.5348   23.3178  -73.1977 C.3       3 UNK        -0.1996 
     59 N         -81.6408   24.2814  -75.1571 N.am      3 UNK        -0.4254 
     60 C         -82.3334   24.2871  -76.3051 C.2       2 UNK         0.5004 
     61 O         -82.3649   23.3321  -77.0834 O.2       2 UNK        -0.5226 
     62 CA        -83.1571   25.5428  -76.6422 C.3       2 UNK         0.0269 
     63 CB        -84.6560   25.2715  -76.4295 C.3       2 UNK        -0.1926 
     64 N         -82.7797   26.7123  -75.8467 N.am      2 UNK        -0.4687 
     65 C         -81.8377   27.6032  -76.1727 C.2       1 UNK         0.5165 
     66 O         -81.1849   27.5386  -77.2152 O.2       1 UNK        -0.5079 
     67 H67       -84.5082   29.4956  -71.8187 H         1 UNK         0.0900 
     68 H68       -85.6169   29.0664  -73.1239 H         1 UNK         0.0900 
     69 H69       -84.6285   30.5234  -73.2476 H         1 UNK         0.0900 
     70 H70       -82.9781   30.2460  -74.6400 H         1 UNK         0.2959 
     71 H71       -81.3821   29.6233  -75.8788 H         1 UNK         0.1079 
     72 H72       -79.4284   28.6536  -74.9889 H         1 UNK         0.0837 
     73 H73       -80.2024   29.4989  -73.7008 H         1 UNK         0.0837 
     74 H74       -80.2343   27.1019  -70.9466 H         1 UNK         0.0685 
     75 H75       -80.2401   28.7362  -71.5440 H         1 UNK         0.0685 
     76 H76       -78.1931   25.9559  -70.4460 H         1 UNK         0.1434 
     77 H77       -74.4337   27.9357  -71.0358 H         1 UNK         0.1329 
     78 H78       -78.0492   29.6978  -72.5281 H         1 UNK         0.1335 
     79 H79       -76.0082   31.0213  -72.3748 H         1 UNK         0.0680 
     80 H80       -74.5490   30.3675  -71.6695 H         1 UNK         0.0680 
     81 H81       -74.4206   31.6780  -75.5014 H         1 UNK         0.1032 
     82 H82       -74.6428   32.2506  -73.8828 H         1 UNK         0.1032 
     83 H83       -72.3831   32.7018  -74.7147 H         1 UNK         0.0461 
     84 H84       -70.9437   30.0200  -73.0396 H         1 UNK         0.3453 
     85 H85       -70.9549   30.7946  -71.4712 H         1 UNK         0.3453 
     86 H86       -72.2954   29.8964  -75.4352 H         1 UNK         0.2984 
     87 H87       -70.1319   30.0172  -77.4869 H         1 UNK         0.0554 
     88 H88       -67.9111   29.0442  -76.8494 H         1 UNK         0.0847 
     89 H89       -68.0892   29.7042  -75.2242 H         1 UNK         0.0847 
     90 H90       -67.9487   30.7805  -76.6071 H         1 UNK         0.0847 
     91 H91       -70.6745   27.9173  -76.9584 H         1 UNK         0.3141 
     92 H92       -70.1963   25.8143  -75.3682 H         1 UNK         0.0743 
     93 H93       -70.4483   25.9035  -72.9340 H         1 UNK         0.0784 
     94 H94       -72.1048   26.4707  -73.0716 H         1 UNK         0.0784 
     95 H95       -71.6807   24.8404  -73.5923 H         1 UNK         0.0784 
     96 H96       -73.0801   26.0502  -75.3747 H         1 UNK         0.3213 
     97 H97       -73.5197   26.4267  -78.7970 H         1 UNK         0.0855 
     98 H98       -73.2068   23.5609  -77.7506 H         1 UNK         0.0814 
     99 H99       -72.4515   24.2197  -79.1946 H         1 UNK         0.0814 
    100 H100      -74.1973   24.0447  -79.1269 H         1 UNK         0.0814 
    101 H101      -75.0184   24.9464  -76.7939 H         1 UNK         0.3105 
    102 H102      -76.4384   27.7019  -75.1757 H         1 UNK         0.0547 
    103 H103      -77.8530   27.9121  -77.1774 H         1 UNK         0.0837 
    104 H104      -77.8006   26.1773  -77.4613 H         1 UNK         0.0837 
    105 H105      -78.6446   26.8104  -76.0595 H         1 UNK         0.0837 
    106 H106      -77.2977   25.0265  -75.1883 H         1 UNK         0.3020 
    107 H107      -74.6222   23.3939  -73.6544 H         1 UNK         0.1245 
    108 H108      -76.1761   22.8737  -71.6985 H         1 UNK         0.0781 
    109 H109      -76.9116   24.4306  -71.9172 H         1 UNK         0.0781 
    110 H110      -74.8236   26.1249  -69.2050 H         1 UNK         0.0836 
    111 H111      -76.2475   25.1263  -69.3158 H         1 UNK         0.0836 
    112 H112      -77.3554   22.6483  -73.7905 H         1 UNK         0.3022 
    113 H113      -77.6283   21.9780  -77.1969 H         1 UNK         0.0747 
    114 H114      -77.9704   19.5965  -76.5881 H         1 UNK         0.0793 
    115 H115      -76.2579   19.9791  -76.5708 H         1 UNK         0.0793 
    116 H116      -77.1340   19.8383  -75.0531 H         1 UNK         0.0793 
    117 H117      -79.2857   21.1364  -75.0768 H         1 UNK         0.3047 
    118 H118      -81.3394   22.2364  -74.8772 H         1 UNK         0.0822 
    119 H119      -80.0086   22.4476  -72.8038 H         1 UNK         0.0807 
    120 H120      -81.4656   23.4105  -72.6378 H         1 UNK         0.0807 
    121 H121      -79.9228   24.1928  -72.9767 H         1 UNK         0.0807 
    122 H122      -81.6192   25.1271  -74.6037 H         1 UNK         0.2946 
    123 H123      -82.9957   25.7588  -77.7009 H         1 UNK         0.1144 
    124 H124      -84.9886   24.4190  -77.0235 H         1 UNK         0.0793 
    125 H125      -85.2598   26.1284  -76.7286 H         1 UNK         0.0793 
    126 H126      -84.8810   25.0505  -75.3852 H         1 UNK         0.0793 
    127 H127      -83.2224   26.8275  -74.9364 H         1 UNK         0.2896 
@<TRIPOS>BOND
     1    1    2 1    
     2    1   67 1    
     3    1   68 1    
     4    1   69 1    
     5    2    3 2    
     6    2    4 am   BACKBONE|DICT|INTERRES
     7    4    5 1    
     8    4   70 1    
     9    5    6 1    
    10    5   65 1    
    11    5   71 1    
    12    6    7 1    
    13    6   72 1    
    14    6   73 1    
    15    7    8 1    
    16    8    9 1    
    17    8   74 1    
    18    8   75 1    
    19    9   10 ar   
    20    9   14 ar   
    21   10   11 ar   
    22   10   76 1    
    23   11   12 ar   
    24   11   48 1    
    25   12   13 ar   
    26   12   77 1    
    27   13   14 ar   
    28   13   15 1    
    29   14   78 1    
    30   15   16 1    
    31   15   79 1    
    32   15   80 1    
    33   16   17 1    
    34   17   18 1    
    35   17   81 1    
    36   17   82 1    
    37   18   19 1    
    38   18   22 1    
    39   18   83 1    
    40   19   20 am   BACKBONE|DICT|INTERRES
    41   19   21 2    
    42   20   84 1    
    43   20   85 1    
    44   22   23 am   BACKBONE|DICT|INTERRES
    45   22   86 1    
    46   23   24 2    
    47   23   25 1    
    48   25   26 1    
    49   25   27 1    
    50   25   87 1    
    51   26   88 1    
    52   26   89 1    
    53   26   90 1    
    54   27   28 am   BACKBONE|DICT|INTERRES
    55   27   91 1    
    56   28   29 2    
    57   28   30 1    
    58   30   31 1    
    59   30   32 1    
    60   30   92 1    
    61   31   93 1    
    62   31   94 1    
    63   31   95 1    
    64   32   33 am   BACKBONE|DICT|INTERRES
    65   32   96 1    
    66   33   34 2    
    67   33   35 1    
    68   35   36 1    
    69   35   37 1    
    70   35   97 1    
    71   36   98 1    
    72   36   99 1    
    73   36  100 1    
    74   37   38 am   BACKBONE|DICT|INTERRES
    75   37  101 1    
    76   38   39 2    
    77   38   40 1    
    78   40   41 1    
    79   40   42 1    
    80   40  102 1    
    81   41  103 1    
    82   41  104 1    
    83   41  105 1    
    84   42   43 am   BACKBONE|DICT|INTERRES
    85   42  106 1    
    86   43   44 2    
    87   43   45 1    
    88   45   46 1    
    89   45   49 1    
    90   45  107 1    
    91   46   47 1    
    92   46  108 1    
    93   46  109 1    
    94   47   48 1    
    95   48  110 1    
    96   48  111 1    
    97   49   50 am   BACKBONE|DICT|INTERRES
    98   49  112 1    
    99   50   51 2    
   100   50   52 1    
   101   52   53 1    
   102   52   54 1    
   103   52  113 1    
   104   53  114 1    
   105   53  115 1    
   106   53  116 1    
   107   54   55 am   BACKBONE|DICT|INTERRES
   108   54  117 1    
   109   55   56 2    
   110   55   57 1    
   111   57   58 1    
   112   57   59 1    
   113   57  118 1    
   114   58  119 1    
   115   58  120 1    
   116   58  121 1    
   117   59   60 am   BACKBONE|DICT|INTERRES
   118   59  122 1    
   119   60   61 2    
   120   60   62 1    
   121   62   63 1    
   122   62   64 1    
   123   62  123 1    
   124   63  124 1    
   125   63  125 1    
   126   63  126 1    
   127   64   65 am   BACKBONE|DICT|INTERRES
   128   64  127 1    
   129   65   66 2    
@<TRIPOS>SUBSTRUCTURE
     1 UNK         1 GROUP             0       ****    0 ROOT    
