@<TRIPOS>MOLECULE
3R135
127   129    1
SMALL
USER_CHARGES


@<TRIPOS>ATOM
      1 CA        -80.8144   21.2488  -72.8244 C.3       0 UNK        -0.1998 
      2 C         -81.3113   22.6859  -72.8385 C.2       0 UNK         0.4909 
      3 O         -82.2371   23.0034  -73.5861 O.2       0 UNK        -0.5240 
      4 N         -80.6943   23.5589  -72.0290 N.am      1 UNK        -0.4739 
      5 CA        -81.0033   24.9894  -71.9088 C.3       1 UNK         0.0864 
      6 C6        -80.1235   25.6559  -70.8230 C.3       11 UNK        -0.0881 
      7 S7        -80.8089   27.2500  -70.2676 S.3       11 UNK        -0.2682 
      8 C8        -79.2973   28.1210  -69.7327 C.3       11 UNK         0.0289 
      9 C9        -78.3997   28.6049  -70.8715 C.ar      11 UNK        -0.0687 
     10 C10       -78.9362   29.1662  -72.0375 C.ar      11 UNK        -0.0823 
     11 C11       -78.1017   29.6902  -73.0308 C.ar      11 UNK        -0.0830 
     12 C12       -76.7156   29.6536  -72.8468 C.ar      11 UNK        -0.1021 
     13 C13       -76.1647   29.0954  -71.6914 C.ar      11 UNK        -0.0753 
     14 C14       -77.0099   28.5662  -70.7118 C.ar      11 UNK        -0.0933 
     15 C15       -74.6585   29.1147  -71.4882 C.3       11 UNK         0.0166 
     16 S16       -74.1325   30.7304  -70.8430 S.3       11 UNK        -0.2615 
     17 C17       -72.3155   30.5856  -70.8772 C.3       11 UNK        -0.0865 
     18 CA        -71.7167   31.1904  -72.1739 C.3       10 UNK         0.0862 
     19 C         -70.2204   31.5556  -71.9841 C.2       10 UNK         0.5551 
     20 N         -69.9332   32.7754  -71.5513 N.am      10 UNK        -0.7319 
     21 O         -69.3238   30.7382  -72.1844 O.2       10 UNK        -0.5018 
     22 N         -71.8916   30.2754  -73.3073 N.am      10 UNK        -0.4509 
     23 C         -71.9679   30.6339  -74.5907 C.2       10 UNK         0.4899 
     24 O         -72.0364   31.8055  -74.9641 O.2       10 UNK        -0.4839 
     25 CA        -71.9675   29.5176  -75.6569 C.3       9 UNK         0.0222 
     26 CB        -70.5725   29.3858  -76.2981 C.3       9 UNK        -0.1966 
     27 N         -72.4700   28.1968  -75.2409 N.am      9 UNK        -0.4218 
     28 C         -71.9751   27.3483  -74.3253 C.2       9 UNK         0.5020 
     29 O         -71.0373   27.6143  -73.5735 O.2       9 UNK        -0.5274 
     30 CA        -72.6395   25.9665  -74.2172 C.3       8 UNK         0.0270 
     31 CB        -73.8774   26.0227  -73.3073 C.3       8 UNK        -0.1976 
     32 N         -73.0102   25.3963  -75.5130 N.am      8 UNK        -0.4313 
     33 C         -72.1504   25.0153  -76.4689 C.2       8 UNK         0.5041 
     34 O         -70.9264   25.1115  -76.3728 O.2       8 UNK        -0.5577 
     35 CA        -72.7580   24.4148  -77.7455 C.3       7 UNK         0.0284 
     36 CB        -73.0780   22.9244  -77.5420 C.3       7 UNK        -0.1958 
     37 N         -73.9761   25.1248  -78.1369 N.am      7 UNK        -0.4454 
     38 C         -74.0139   26.1479  -78.9998 C.2       7 UNK         0.5089 
     39 O         -73.0333   26.5565  -79.6228 O.2       7 UNK        -0.5125 
     40 CA        -75.3741   26.8407  -79.2113 C.3       6 UNK         0.0408 
     41 CB        -76.1018   26.2307  -80.4197 C.3       6 UNK        -0.1791 
     42 N         -76.2629   26.8014  -78.0457 N.am      6 UNK        -0.4762 
     43 C         -76.0067   27.3828  -76.8644 C.2       6 UNK         0.5007 
     44 O         -74.9617   27.9810  -76.6062 O.2       6 UNK        -0.5032 
     45 CA        -77.0785   27.2201  -75.7662 C.3       5 UNK         0.0783 
     46 C46       -78.2805   28.1701  -75.9981 C.3       11 UNK        -0.0857 
     47 S47       -77.8719   29.9382  -75.8222 S.3       11 UNK        -0.2512 
     48 C48       -78.7117   30.3605  -74.2588 C.3       11 UNK         0.0225 
     49 N         -77.5553   25.8441  -75.5764 N.am      5 UNK        -0.4615 
     50 C         -76.8610   24.6973  -75.5879 C.2       4 UNK         0.5053 
     51 O         -75.6603   24.6151  -75.8380 O.2       4 UNK        -0.5105 
     52 CA        -77.6372   23.4122  -75.2667 C.3       4 UNK         0.0263 
     53 CB        -77.5079   23.0773  -73.7724 C.3       4 UNK        -0.1981 
     54 N         -79.0534   23.5129  -75.6298 N.am      4 UNK        -0.4224 
     55 C         -79.5392   23.2851  -76.8591 C.2       3 UNK         0.4895 
     56 O         -78.8465   22.9210  -77.8096 O.2       3 UNK        -0.5091 
     57 CA        -81.0493   23.4936  -77.0735 C.3       3 UNK         0.0250 
     58 CB        -81.8028   22.1614  -76.9304 C.3       3 UNK        -0.1996 
     59 N         -81.6221   24.4815  -76.1547 N.am      3 UNK        -0.4254 
     60 C         -81.5156   25.8087  -76.3240 C.2       2 UNK         0.5004 
     61 O         -80.9851   26.3302  -77.3044 O.2       2 UNK        -0.5226 
     62 CA        -82.0595   26.7145  -75.2010 C.3       2 UNK         0.0269 
     63 CB        -83.5104   27.1245  -75.4983 C.3       2 UNK        -0.1926 
     64 N         -81.9893   26.1197  -73.8614 N.am      2 UNK        -0.4687 
     65 C         -80.8626   25.6985  -73.2704 C.2       1 UNK         0.5165 
     66 O         -79.7506   25.7855  -73.7908 O.2       1 UNK        -0.5079 
     67 H67       -80.0419   21.0912  -72.0720 H         1 UNK         0.0900 
     68 H68       -80.4007   20.9853  -73.7974 H         1 UNK         0.0900 
     69 H69       -81.6392   20.5699  -72.6096 H         1 UNK         0.0900 
     70 H70       -79.9340   23.2321  -71.4502 H         1 UNK         0.2959 
     71 H71       -82.0460   25.0534  -71.5898 H         1 UNK         0.1079 
     72 H72       -80.0625   25.0142  -69.9425 H         1 UNK         0.0837 
     73 H73       -79.0964   25.7862  -71.1715 H         1 UNK         0.0837 
     74 H74       -78.7429   27.4681  -69.0565 H         1 UNK         0.0685 
     75 H75       -79.5937   28.9899  -69.1441 H         1 UNK         0.0685 
     76 H76       -80.0092   29.2225  -72.1583 H         1 UNK         0.1434 
     77 H77       -76.0606   30.0843  -73.5921 H         1 UNK         0.1329 
     78 H78       -76.5835   28.1575  -69.8059 H         1 UNK         0.1335 
     79 H79       -74.1590   28.9188  -72.4373 H         1 UNK         0.0680 
     80 H80       -74.3507   28.3266  -70.7993 H         1 UNK         0.0680 
     81 H81       -71.9473   31.1177  -69.9975 H         1 UNK         0.1032 
     82 H82       -72.0103   29.5457  -70.7446 H         1 UNK         0.1032 
     83 H83       -72.2505   32.1175  -72.3952 H         1 UNK         0.0461 
     84 H84       -68.9685   33.0300  -71.4063 H         1 UNK         0.3453 
     85 H85       -70.6611   33.4505  -71.3741 H         1 UNK         0.3453 
     86 H86       -71.6923   29.2959  -73.1258 H         1 UNK         0.2984 
     87 H87       -72.6551   29.8473  -76.4373 H         1 UNK         0.0554 
     88 H88       -70.2391   30.3396  -76.7092 H         1 UNK         0.0847 
     89 H89       -70.5787   28.6647  -77.1157 H         1 UNK         0.0847 
     90 H90       -69.8225   29.0656  -75.5739 H         1 UNK         0.0847 
     91 H91       -73.3038   27.9023  -75.7471 H         1 UNK         0.3141 
     92 H92       -71.9151   25.2894  -73.7596 H         1 UNK         0.0743 
     93 H93       -73.6101   26.3714  -72.3094 H         1 UNK         0.0784 
     94 H94       -74.6385   26.6972  -73.6997 H         1 UNK         0.0784 
     95 H95       -74.3315   25.0381  -73.1928 H         1 UNK         0.0784 
     96 H96       -74.0019   25.2148  -75.6626 H         1 UNK         0.3213 
     97 H97       -72.0123   24.4921  -78.5401 H         1 UNK         0.0855 
     98 H98       -73.8172   22.7691  -76.7552 H         1 UNK         0.0814 
     99 H99       -72.1819   22.3691  -77.2615 H         1 UNK         0.0814 
    100 H100      -73.4642   22.4748  -78.4569 H         1 UNK         0.0814 
    101 H101      -74.8186   24.8964  -77.6194 H         1 UNK         0.3105 
    102 H102      -75.1714   27.8908  -79.4320 H         1 UNK         0.0547 
    103 H103      -75.4754   26.2679  -81.3122 H         1 UNK         0.0837 
    104 H104      -76.3629   25.1854  -80.2487 H         1 UNK         0.0837 
    105 H105      -77.0187   26.7741  -80.6483 H         1 UNK         0.0837 
    106 H106      -77.1349   26.3024  -78.1524 H         1 UNK         0.3020 
    107 H107      -76.6091   27.5003  -74.8220 H         1 UNK         0.1245 
    108 H108      -79.0732   27.9368  -75.2871 H         1 UNK         0.0781 
    109 H109      -78.7184   28.0104  -76.9852 H         1 UNK         0.0781 
    110 H110      -78.6608   31.4411  -74.1199 H         1 UNK         0.0836 
    111 H111      -79.7707   30.1138  -74.3514 H         1 UNK         0.0836 
    112 H112      -78.5094   25.7793  -75.2354 H         1 UNK         0.3022 
    113 H113      -77.1793   22.5995  -75.8349 H         1 UNK         0.0747 
    114 H114      -76.4598   22.9744  -73.4875 H         1 UNK         0.0793 
    115 H115      -77.9994   22.1348  -73.5332 H         1 UNK         0.0793 
    116 H116      -77.9390   23.8556  -73.1418 H         1 UNK         0.0793 
    117 H117      -79.6760   23.8801  -74.9231 H         1 UNK         0.3047 
    118 H118      -81.1887   23.8475  -78.0976 H         1 UNK         0.0822 
    119 H119      -81.4287   21.4243  -77.6423 H         1 UNK         0.0807 
    120 H120      -82.8684   22.2857  -77.1239 H         1 UNK         0.0807 
    121 H121      -81.6911   21.7351  -75.9334 H         1 UNK         0.0807 
    122 H122      -82.0576   24.1245  -75.3092 H         1 UNK         0.2946 
    123 H123      -81.4466   27.6179  -75.1910 H         1 UNK         0.1144 
    124 H124      -83.8776   27.8455  -74.7676 H         1 UNK         0.0793 
    125 H125      -84.1824   26.2653  -75.4915 H         1 UNK         0.0793 
    126 H126      -83.5902   27.5931  -76.4804 H         1 UNK         0.0793 
    127 H127      -82.8693   25.9748  -73.3870 H         1 UNK         0.2896 
@<TRIPOS>BOND
     1    1    2 1    
     2    1   67 1    
     3    1   68 1    
     4    1   69 1    
     5    2    3 2    
     6    2    4 am   BACKBONE|DICT|INTERRES
     7    4    5 1    
     8    4   70 1    
     9    5    6 1    
    10    5   65 1    
    11    5   71 1    
    12    6    7 1    
    13    6   72 1    
    14    6   73 1    
    15    7    8 1    
    16    8    9 1    
    17    8   74 1    
    18    8   75 1    
    19    9   10 ar   
    20    9   14 ar   
    21   10   11 ar   
    22   10   76 1    
    23   11   12 ar   
    24   11   48 1    
    25   12   13 ar   
    26   12   77 1    
    27   13   14 ar   
    28   13   15 1    
    29   14   78 1    
    30   15   16 1    
    31   15   79 1    
    32   15   80 1    
    33   16   17 1    
    34   17   18 1    
    35   17   81 1    
    36   17   82 1    
    37   18   19 1    
    38   18   22 1    
    39   18   83 1    
    40   19   20 am   BACKBONE|DICT|INTERRES
    41   19   21 2    
    42   20   84 1    
    43   20   85 1    
    44   22   23 am   BACKBONE|DICT|INTERRES
    45   22   86 1    
    46   23   24 2    
    47   23   25 1    
    48   25   26 1    
    49   25   27 1    
    50   25   87 1    
    51   26   88 1    
    52   26   89 1    
    53   26   90 1    
    54   27   28 am   BACKBONE|DICT|INTERRES
    55   27   91 1    
    56   28   29 2    
    57   28   30 1    
    58   30   31 1    
    59   30   32 1    
    60   30   92 1    
    61   31   93 1    
    62   31   94 1    
    63   31   95 1    
    64   32   33 am   BACKBONE|DICT|INTERRES
    65   32   96 1    
    66   33   34 2    
    67   33   35 1    
    68   35   36 1    
    69   35   37 1    
    70   35   97 1    
    71   36   98 1    
    72   36   99 1    
    73   36  100 1    
    74   37   38 am   BACKBONE|DICT|INTERRES
    75   37  101 1    
    76   38   39 2    
    77   38   40 1    
    78   40   41 1    
    79   40   42 1    
    80   40  102 1    
    81   41  103 1    
    82   41  104 1    
    83   41  105 1    
    84   42   43 am   BACKBONE|DICT|INTERRES
    85   42  106 1    
    86   43   44 2    
    87   43   45 1    
    88   45   46 1    
    89   45   49 1    
    90   45  107 1    
    91   46   47 1    
    92   46  108 1    
    93   46  109 1    
    94   47   48 1    
    95   48  110 1    
    96   48  111 1    
    97   49   50 am   BACKBONE|DICT|INTERRES
    98   49  112 1    
    99   50   51 2    
   100   50   52 1    
   101   52   53 1    
   102   52   54 1    
   103   52  113 1    
   104   53  114 1    
   105   53  115 1    
   106   53  116 1    
   107   54   55 am   BACKBONE|DICT|INTERRES
   108   54  117 1    
   109   55   56 2    
   110   55   57 1    
   111   57   58 1    
   112   57   59 1    
   113   57  118 1    
   114   58  119 1    
   115   58  120 1    
   116   58  121 1    
   117   59   60 am   BACKBONE|DICT|INTERRES
   118   59  122 1    
   119   60   61 2    
   120   60   62 1    
   121   62   63 1    
   122   62   64 1    
   123   62  123 1    
   124   63  124 1    
   125   63  125 1    
   126   63  126 1    
   127   64   65 am   BACKBONE|DICT|INTERRES
   128   64  127 1    
   129   65   66 2    
@<TRIPOS>SUBSTRUCTURE
     1 UNK         1 GROUP             0       ****    0 ROOT    
