@<TRIPOS>MOLECULE
3R135
127   129    1
SMALL
USER_CHARGES


@<TRIPOS>ATOM
      1 CA        -79.8843   24.3939  -69.6906 C.3       0 UNK        -0.1998 
      2 C         -81.0444   25.1217  -70.3520 C.2       0 UNK         0.4909 
      3 O         -82.2009   24.7650  -70.1267 O.2       0 UNK        -0.5240 
      4 N         -80.7442   26.1368  -71.1720 N.am      1 UNK        -0.4739 
      5 CA        -81.7323   26.9803  -71.8655 C.3       1 UNK         0.0864 
      6 C6        -81.1888   28.4096  -72.1201 C.3       11 UNK        -0.0881 
      7 S7        -80.7112   29.2423  -70.5658 S.3       11 UNK        -0.2682 
      8 C8        -79.5832   30.5482  -71.1623 C.3       11 UNK         0.0289 
      9 C9        -78.3547   30.0300  -71.9070 C.ar      11 UNK        -0.0687 
     10 C10       -77.6782   28.8766  -71.4900 C.ar      11 UNK        -0.0823 
     11 C11       -76.5737   28.4033  -72.2037 C.ar      11 UNK        -0.0830 
     12 C12       -76.1160   29.1150  -73.3142 C.ar      11 UNK        -0.1021 
     13 C13       -76.7543   30.2894  -73.7178 C.ar      11 UNK        -0.0753 
     14 C14       -77.8825   30.7319  -73.0211 C.ar      11 UNK        -0.0933 
     15 C15       -76.2199   31.0744  -74.9072 C.3       11 UNK         0.0166 
     16 S16       -75.6496   32.7487  -74.4571 S.3       11 UNK        -0.2615 
     17 C17       -74.4032   32.4537  -73.1497 C.3       11 UNK        -0.0865 
     18 CA        -72.9411   32.4896  -73.6895 C.3       10 UNK         0.0862 
     19 C         -71.8382   32.6191  -72.5900 C.2       10 UNK         0.5551 
     20 N         -72.1383   33.1842  -71.4273 N.am      10 UNK        -0.7319 
     21 O         -70.6793   32.2687  -72.8070 O.2       10 UNK        -0.5018 
     22 N         -72.6827   31.3971  -74.6431 N.am      10 UNK        -0.4509 
     23 C         -72.5923   30.0937  -74.3438 C.2       10 UNK         0.4899 
     24 O         -72.7142   29.6371  -73.2048 O.2       10 UNK        -0.4839 
     25 CA        -72.4117   29.1463  -75.5442 C.3       9 UNK         0.0222 
     26 CB        -71.2977   29.6004  -76.5141 C.3       9 UNK        -0.1966 
     27 N         -72.2344   27.7459  -75.1460 N.am      9 UNK        -0.4218 
     28 C         -71.1723   27.1734  -74.5575 C.2       9 UNK         0.5020 
     29 O         -70.1387   27.7660  -74.2438 O.2       9 UNK        -0.5274 
     30 CA        -71.2680   25.6570  -74.3136 C.3       8 UNK         0.0270 
     31 CB        -71.9477   25.3569  -72.9673 C.3       8 UNK        -0.1976 
     32 N         -71.9986   24.9932  -75.3968 N.am      8 UNK        -0.4313 
     33 C         -71.4498   24.6261  -76.5645 C.2       8 UNK         0.5041 
     34 O         -70.2409   24.6671  -76.7967 O.2       8 UNK        -0.5577 
     35 CA        -72.4099   24.1518  -77.6719 C.3       7 UNK         0.0284 
     36 CB        -72.6436   22.6362  -77.5723 C.3       7 UNK        -0.1958 
     37 N         -73.6958   24.8552  -77.6387 N.am      7 UNK        -0.4454 
     38 C         -73.8526   26.1513  -77.9558 C.2       7 UNK         0.5089 
     39 O         -72.9558   26.8459  -78.4328 O.2       7 UNK        -0.5125 
     40 CA        -75.2200   26.8056  -77.6687 C.3       6 UNK         0.0408 
     41 CB        -76.0037   27.0029  -78.9747 C.3       6 UNK        -0.1791 
     42 N         -76.0503   26.0707  -76.7091 N.am      6 UNK        -0.4762 
     43 C         -75.7278   25.8321  -75.4274 C.2       6 UNK         0.5007 
     44 O         -74.6928   26.2537  -74.9108 O.2       6 UNK        -0.5032 
     45 CA        -76.6613   24.9032  -74.6187 C.3       5 UNK         0.0783 
     46 C46       -77.5507   25.6951  -73.6218 C.3       11 UNK        -0.0857 
     47 S47       -76.9343   25.6492  -71.9042 S.3       11 UNK        -0.2512 
     48 C48       -75.8676   27.1236  -71.7824 C.3       11 UNK         0.0225 
     49 N         -77.4571   24.0235  -75.4870 N.am      5 UNK        -0.4615 
     50 C         -76.9427   23.0419  -76.2456 C.2       4 UNK         0.5053 
     51 O         -75.7392   22.7871  -76.2868 O.2       4 UNK        -0.5105 
     52 CA        -77.9051   22.2230  -77.1269 C.3       4 UNK         0.0263 
     53 CB        -78.2326   20.8818  -76.4515 C.3       4 UNK        -0.1981 
     54 N         -79.1553   22.9155  -77.4460 N.am      4 UNK        -0.4224 
     55 C         -79.2576   24.0223  -78.1965 C.2       3 UNK         0.4895 
     56 O         -78.3038   24.5523  -78.7649 O.2       3 UNK        -0.5091 
     57 CA        -80.6501   24.6783  -78.2832 C.3       3 UNK         0.0250 
     58 CB        -81.3957   24.1928  -79.5364 C.3       3 UNK        -0.1996 
     59 N         -81.4891   24.4547  -77.0964 N.am      3 UNK        -0.4254 
     60 C         -81.1582   24.8278  -75.8519 C.2       2 UNK         0.5004 
     61 O         -80.1072   25.4107  -75.5769 O.2       2 UNK        -0.5226 
     62 CA        -82.1147   24.4018  -74.7278 C.3       2 UNK         0.0269 
     63 CB        -81.9807   22.8929  -74.4566 C.3       2 UNK        -0.1926 
     64 N         -81.8117   25.1188  -73.4893 N.am      2 UNK        -0.4687 
     65 C         -82.2594   26.3405  -73.1722 C.2       1 UNK         0.5165 
     66 O         -83.0640   26.9623  -73.8688 O.2       1 UNK        -0.5079 
     67 H67       -80.1007   24.2194  -68.6369 H         1 UNK         0.0900 
     68 H68       -78.9599   24.9675  -69.7505 H         1 UNK         0.0900 
     69 H69       -79.7218   23.4292  -70.1706 H         1 UNK         0.0900 
     70 H70       -79.7768   26.3869  -71.3222 H         1 UNK         0.2959 
     71 H71       -82.6066   27.0800  -71.2179 H         1 UNK         0.1079 
     72 H72       -80.3349   28.3701  -72.7987 H         1 UNK         0.0837 
     73 H73       -81.9405   29.0319  -72.6096 H         1 UNK         0.0837 
     74 H74       -80.1553   31.2261  -71.7978 H         1 UNK         0.0685 
     75 H75       -79.2472   31.1356  -70.3071 H         1 UNK         0.0685 
     76 H76       -78.0224   28.3306  -70.6227 H         1 UNK         0.1434 
     77 H77       -75.2544   28.7556  -73.8596 H         1 UNK         0.1329 
     78 H78       -78.3824   31.6357  -73.3419 H         1 UNK         0.1335 
     79 H79       -77.0096   31.1636  -75.6544 H         1 UNK         0.0680 
     80 H80       -75.4037   30.5397  -75.3934 H         1 UNK         0.0680 
     81 H81       -74.6017   31.5190  -72.6244 H         1 UNK         0.1032 
     82 H82       -74.5647   33.2424  -72.4149 H         1 UNK         0.1032 
     83 H83       -72.8360   33.4052  -74.2726 H         1 UNK         0.0461 
     84 H84       -71.4122   33.2848  -70.7352 H         1 UNK         0.3453 
     85 H85       -73.0683   33.5131  -71.2244 H         1 UNK         0.3453 
     86 H86       -72.5573   31.6834  -75.6025 H         1 UNK         0.2984 
     87 H87       -73.3533   29.1695  -76.0935 H         1 UNK         0.0554 
     88 H88       -71.1376   28.8638  -77.3020 H         1 UNK         0.0847 
     89 H89       -70.3478   29.7516  -76.0001 H         1 UNK         0.0847 
     90 H90       -71.5533   30.5383  -77.0071 H         1 UNK         0.0847 
     91 H91       -73.0676   27.1710  -75.2345 H         1 UNK         0.3141 
     92 H92       -70.2515   25.2592  -74.2716 H         1 UNK         0.0743 
     93 H93       -72.9717   25.7279  -72.9351 H         1 UNK         0.0784 
     94 H94       -71.9729   24.2858  -72.7664 H         1 UNK         0.0784 
     95 H95       -71.4062   25.8286  -72.1462 H         1 UNK         0.0784 
     96 H96       -73.0060   24.9614  -75.3048 H         1 UNK         0.3213 
     97 H97       -71.9357   24.3597  -78.6337 H         1 UNK         0.0855 
     98 H98       -73.0869   22.3563  -76.6158 H         1 UNK         0.0814 
     99 H99       -71.7031   22.0915  -77.6656 H         1 UNK         0.0814 
    100 H100      -73.3037   22.2817  -78.3642 H         1 UNK         0.0814 
    101 H101      -74.4871   24.3417  -77.2685 H         1 UNK         0.3105 
    102 H102      -75.0253   27.7905  -77.2404 H         1 UNK         0.0547 
    103 H103      -75.4451   27.6270  -79.6736 H         1 UNK         0.0837 
    104 H104      -76.1992   26.0534  -79.4742 H         1 UNK         0.0837 
    105 H105      -76.9610   27.4932  -78.7974 H         1 UNK         0.0837 
    106 H106      -76.9017   25.6614  -77.0728 H         1 UNK         0.3020 
    107 H107      -76.0031   24.2446  -74.0470 H         1 UNK         0.1245 
    108 H108      -78.5400   25.2414  -73.5634 H         1 UNK         0.0781 
    109 H109      -77.7377   26.7192  -73.9495 H         1 UNK         0.0781 
    110 H110      -74.9690   26.9628  -72.3782 H         1 UNK         0.0836 
    111 H111      -75.5289   27.2281  -70.7509 H         1 UNK         0.0836 
    112 H112      -78.4475   24.2363  -75.5447 H         1 UNK         0.3022 
    113 H113      -77.3879   22.0174  -78.0665 H         1 UNK         0.0747 
    114 H114      -78.8425   20.2497  -77.0973 H         1 UNK         0.0793 
    115 H115      -77.3212   20.3259  -76.2258 H         1 UNK         0.0793 
    116 H116      -78.7694   21.0221  -75.5122 H         1 UNK         0.0793 
    117 H117      -79.9966   22.5486  -77.0266 H         1 UNK         0.3047 
    118 H118      -80.4921   25.7552  -78.3740 H         1 UNK         0.0822 
    119 H119      -82.3406   24.7208  -79.6665 H         1 UNK         0.0807 
    120 H120      -81.6100   23.1242  -79.4918 H         1 UNK         0.0807 
    121 H121      -80.8030   24.3689  -80.4354 H         1 UNK         0.0807 
    122 H122      -82.3631   23.9703  -77.2461 H         1 UNK         0.2946 
    123 H123      -83.1391   24.6237  -75.0363 H         1 UNK         0.1144 
    124 H124      -82.2532   22.3052  -75.3342 H         1 UNK         0.0793 
    125 H125      -82.6387   22.5780  -73.6462 H         1 UNK         0.0793 
    126 H126      -80.9607   22.6188  -74.1829 H         1 UNK         0.0793 
    127 H127      -81.1306   24.6985  -72.8750 H         1 UNK         0.2896 
@<TRIPOS>BOND
     1    1    2 1    
     2    1   67 1    
     3    1   68 1    
     4    1   69 1    
     5    2    3 2    
     6    2    4 am   BACKBONE|DICT|INTERRES
     7    4    5 1    
     8    4   70 1    
     9    5    6 1    
    10    5   65 1    
    11    5   71 1    
    12    6    7 1    
    13    6   72 1    
    14    6   73 1    
    15    7    8 1    
    16    8    9 1    
    17    8   74 1    
    18    8   75 1    
    19    9   10 ar   
    20    9   14 ar   
    21   10   11 ar   
    22   10   76 1    
    23   11   12 ar   
    24   11   48 1    
    25   12   13 ar   
    26   12   77 1    
    27   13   14 ar   
    28   13   15 1    
    29   14   78 1    
    30   15   16 1    
    31   15   79 1    
    32   15   80 1    
    33   16   17 1    
    34   17   18 1    
    35   17   81 1    
    36   17   82 1    
    37   18   19 1    
    38   18   22 1    
    39   18   83 1    
    40   19   20 am   BACKBONE|DICT|INTERRES
    41   19   21 2    
    42   20   84 1    
    43   20   85 1    
    44   22   23 am   BACKBONE|DICT|INTERRES
    45   22   86 1    
    46   23   24 2    
    47   23   25 1    
    48   25   26 1    
    49   25   27 1    
    50   25   87 1    
    51   26   88 1    
    52   26   89 1    
    53   26   90 1    
    54   27   28 am   BACKBONE|DICT|INTERRES
    55   27   91 1    
    56   28   29 2    
    57   28   30 1    
    58   30   31 1    
    59   30   32 1    
    60   30   92 1    
    61   31   93 1    
    62   31   94 1    
    63   31   95 1    
    64   32   33 am   BACKBONE|DICT|INTERRES
    65   32   96 1    
    66   33   34 2    
    67   33   35 1    
    68   35   36 1    
    69   35   37 1    
    70   35   97 1    
    71   36   98 1    
    72   36   99 1    
    73   36  100 1    
    74   37   38 am   BACKBONE|DICT|INTERRES
    75   37  101 1    
    76   38   39 2    
    77   38   40 1    
    78   40   41 1    
    79   40   42 1    
    80   40  102 1    
    81   41  103 1    
    82   41  104 1    
    83   41  105 1    
    84   42   43 am   BACKBONE|DICT|INTERRES
    85   42  106 1    
    86   43   44 2    
    87   43   45 1    
    88   45   46 1    
    89   45   49 1    
    90   45  107 1    
    91   46   47 1    
    92   46  108 1    
    93   46  109 1    
    94   47   48 1    
    95   48  110 1    
    96   48  111 1    
    97   49   50 am   BACKBONE|DICT|INTERRES
    98   49  112 1    
    99   50   51 2    
   100   50   52 1    
   101   52   53 1    
   102   52   54 1    
   103   52  113 1    
   104   53  114 1    
   105   53  115 1    
   106   53  116 1    
   107   54   55 am   BACKBONE|DICT|INTERRES
   108   54  117 1    
   109   55   56 2    
   110   55   57 1    
   111   57   58 1    
   112   57   59 1    
   113   57  118 1    
   114   58  119 1    
   115   58  120 1    
   116   58  121 1    
   117   59   60 am   BACKBONE|DICT|INTERRES
   118   59  122 1    
   119   60   61 2    
   120   60   62 1    
   121   62   63 1    
   122   62   64 1    
   123   62  123 1    
   124   63  124 1    
   125   63  125 1    
   126   63  126 1    
   127   64   65 am   BACKBONE|DICT|INTERRES
   128   64  127 1    
   129   65   66 2    
@<TRIPOS>SUBSTRUCTURE
     1 UNK         1 GROUP             0       ****    0 ROOT    
