@<TRIPOS>MOLECULE
3R135
127   129    1
SMALL
USER_CHARGES


@<TRIPOS>ATOM
      1 CA        -76.4483   29.6712  -77.1691 C.3       0 UNK        -0.1998 
      2 C         -76.8649   28.5981  -76.1761 C.2       0 UNK         0.4909 
      3 O         -76.0562   27.7363  -75.8249 O.2       0 UNK        -0.5240 
      4 N         -78.1203   28.6605  -75.7158 N.am      1 UNK        -0.4739 
      5 CA        -78.7152   27.6942  -74.7855 C.3       1 UNK         0.0864 
      6 C6        -80.0175   28.2258  -74.1347 C.3       11 UNK        -0.0881 
      7 S7        -79.7816   29.7946  -73.2358 S.3       11 UNK        -0.2682 
      8 C8        -79.6573   29.2098  -71.5174 C.3       11 UNK         0.0289 
      9 C9        -78.3503   28.4711  -71.2773 C.ar      11 UNK        -0.0687 
     10 C10       -78.3123   27.0745  -71.2677 C.ar      11 UNK        -0.0823 
     11 C11       -77.1064   26.3960  -71.0687 C.ar      11 UNK        -0.0830 
     12 C12       -75.9390   27.1358  -70.8365 C.ar      11 UNK        -0.1021 
     13 C13       -75.9608   28.5342  -70.8369 C.ar      11 UNK        -0.0753 
     14 C14       -77.1730   29.1929  -71.0735 C.ar      11 UNK        -0.0933 
     15 C15       -74.6533   29.2975  -70.6321 C.3       11 UNK         0.0166 
     16 S16       -74.8520   30.9517  -69.8811 S.3       11 UNK        -0.2615 
     17 C17       -73.2004   31.6790  -70.1557 C.3       11 UNK        -0.0865 
     18 CA        -73.1939   32.7679  -71.2729 C.3       10 UNK         0.0862 
     19 C         -71.8487   33.5572  -71.3298 C.2       10 UNK         0.5551 
     20 N         -71.3939   34.0043  -72.4941 N.am      10 UNK        -0.7319 
     21 O         -71.2225   33.8003  -70.3007 O.2       10 UNK        -0.5018 
     22 N         -73.6761   32.2726  -72.5794 N.am      10 UNK        -0.4509 
     23 C         -73.1066   31.3046  -73.3090 C.2       10 UNK         0.4899 
     24 O         -72.0831   30.7105  -72.9665 O.2       10 UNK        -0.4839 
     25 CA        -73.8315   30.9456  -74.6229 C.3       9 UNK         0.0222 
     26 CB        -73.5489   31.9892  -75.7230 C.3       9 UNK        -0.1966 
     27 N         -73.5502   29.5791  -75.0884 N.am      9 UNK        -0.4218 
     28 C         -72.3906   29.0663  -75.5323 C.2       9 UNK         0.5020 
     29 O         -71.3690   29.7153  -75.7620 O.2       9 UNK        -0.5274 
     30 CA        -72.3828   27.5502  -75.7637 C.3       8 UNK         0.0270 
     31 CB        -72.5873   26.7880  -74.4438 C.3       8 UNK        -0.1976 
     32 N         -73.4119   27.1635  -76.7287 N.am      8 UNK        -0.4313 
     33 C         -73.2314   27.1684  -78.0543 C.2       8 UNK         0.5041 
     34 O         -72.1603   27.4500  -78.5957 O.2       8 UNK        -0.5577 
     35 CA        -74.4356   26.7484  -78.9097 C.3       7 UNK         0.0284 
     36 CB        -74.1044   26.7029  -80.4191 C.3       7 UNK        -0.1958 
     37 N         -74.9279   25.4522  -78.4440 N.am      7 UNK        -0.4454 
     38 C         -76.0930   24.8921  -78.7788 C.2       7 UNK         0.5089 
     39 O         -76.9257   25.4312  -79.5073 O.2       7 UNK        -0.5125 
     40 CA        -76.3831   23.4841  -78.2248 C.3       6 UNK         0.0408 
     41 CB        -75.3751   22.4469  -78.7601 C.3       6 UNK        -0.1791 
     42 N         -76.5066   23.4136  -76.7614 N.am      6 UNK        -0.4762 
     43 C         -75.5639   23.6275  -75.8303 C.2       6 UNK         0.5007 
     44 O         -74.4137   23.9772  -76.1003 O.2       6 UNK        -0.5032 
     45 CA        -75.9443   23.3750  -74.3552 C.3       5 UNK         0.0783 
     46 C46       -75.5501   24.5649  -73.4461 C.3       11 UNK        -0.0857 
     47 S47       -75.5651   24.1000  -71.6817 S.3       11 UNK        -0.2512 
     48 C48       -77.1097   24.8680  -71.0857 C.3       11 UNK         0.0225 
     49 N         -77.3655   23.0368  -74.1960 N.am      5 UNK        -0.4615 
     50 C         -77.8269   21.8171  -73.8940 C.2       4 UNK         0.5053 
     51 O         -77.1084   20.8192  -73.8317 O.2       4 UNK        -0.5105 
     52 CA        -79.3252   21.6575  -73.5903 C.3       4 UNK         0.0263 
     53 CB        -79.5745   21.6697  -72.0696 C.3       4 UNK        -0.1981 
     54 N         -80.1895   22.6445  -74.2500 N.am      4 UNK        -0.4224 
     55 C         -81.4734   22.4056  -74.5648 C.2       3 UNK         0.4895 
     56 O         -82.0450   21.3393  -74.3312 O.2       3 UNK        -0.5091 
     57 CA        -82.2789   23.5294  -75.2476 C.3       3 UNK         0.0250 
     58 CB        -83.1104   24.2962  -74.2060 C.3       3 UNK        -0.1996 
     59 N         -81.4650   24.4840  -76.0004 N.am      3 UNK        -0.4254 
     60 C         -80.7098   24.1892  -77.0663 C.2       2 UNK         0.5004 
     61 O         -80.6779   23.0784  -77.5959 O.2       2 UNK        -0.5226 
     62 CA        -79.8101   25.3061  -77.6248 C.3       2 UNK         0.0269 
     63 CB        -80.4003   25.8702  -78.9271 C.3       2 UNK        -0.1926 
     64 N         -79.5068   26.4214  -76.7180 N.am      2 UNK        -0.4687 
     65 C         -79.0006   26.3491  -75.4767 C.2       1 UNK         0.5165 
     66 O         -78.7941   25.2931  -74.8757 O.2       1 UNK        -0.5079 
     67 H67       -75.3719   29.6522  -77.3347 H         1 UNK         0.0900 
     68 H68       -76.7146   30.6624  -76.8027 H         1 UNK         0.0900 
     69 H69       -76.9406   29.5110  -78.1278 H         1 UNK         0.0900 
     70 H70       -78.7205   29.4200  -76.0049 H         1 UNK         0.2959 
     71 H71       -77.9840   27.4988  -73.9985 H         1 UNK         0.1079 
     72 H72       -80.7826   28.3989  -74.8942 H         1 UNK         0.0837 
     73 H73       -80.4398   27.4846  -73.4533 H         1 UNK         0.0837 
     74 H74       -79.7165   30.0695  -70.8482 H         1 UNK         0.0685 
     75 H75       -80.5142   28.5786  -71.2766 H         1 UNK         0.0685 
     76 H76       -79.2231   26.5144  -71.4299 H         1 UNK         0.1434 
     77 H77       -75.0024   26.6240  -70.6644 H         1 UNK         0.1329 
     78 H78       -77.2111   30.2726  -71.1065 H         1 UNK         0.1335 
     79 H79       -73.9778   28.7183  -70.0005 H         1 UNK         0.0680 
     80 H80       -74.1684   29.3865  -71.6021 H         1 UNK         0.0680 
     81 H81       -72.4736   30.8940  -70.3695 H         1 UNK         0.1032 
     82 H82       -72.8889   32.1133  -69.2040 H         1 UNK         0.1032 
     83 H83       -73.9247   33.5213  -70.9768 H         1 UNK         0.0461 
     84 H84       -70.5304   34.5234  -72.5219 H         1 UNK         0.3453 
     85 H85       -71.9007   33.8180  -73.3441 H         1 UNK         0.3453 
     86 H86       -74.5120   32.7192  -72.9281 H         1 UNK         0.2984 
     87 H87       -74.9025   30.9619  -74.4139 H         1 UNK         0.0554 
     88 H88       -74.0435   31.7278  -76.6581 H         1 UNK         0.0847 
     89 H89       -72.4824   32.0897  -75.9264 H         1 UNK         0.0847 
     90 H90       -73.9134   32.9747  -75.4316 H         1 UNK         0.0847 
     91 H91       -74.3118   28.9240  -74.9626 H         1 UNK         0.3141 
     92 H92       -71.3996   27.2736  -76.1514 H         1 UNK         0.0743 
     93 H93       -73.5641   26.9874  -74.0022 H         1 UNK         0.0784 
     94 H94       -72.4973   25.7124  -74.5970 H         1 UNK         0.0784 
     95 H95       -71.8338   27.0740  -73.7086 H         1 UNK         0.0784 
     96 H96       -74.3496   27.0028  -76.3672 H         1 UNK         0.3213 
     97 H97       -75.2185   27.4917  -78.7513 H         1 UNK         0.0855 
     98 H98       -73.3537   25.9437  -80.6411 H         1 UNK         0.0814 
     99 H99       -73.7131   27.6613  -80.7629 H         1 UNK         0.0814 
    100 H100      -74.9859   26.4882  -81.0225 H         1 UNK         0.0814 
    101 H101      -74.3536   24.9639  -77.7597 H         1 UNK         0.3105 
    102 H102      -77.3599   23.1919  -78.6135 H         1 UNK         0.0547 
    103 H103      -75.3455   22.4619  -79.8504 H         1 UNK         0.0837 
    104 H104      -74.3600   22.6321  -78.4086 H         1 UNK         0.0837 
    105 H105      -75.6517   21.4365  -78.4594 H         1 UNK         0.0837 
    106 H106      -77.4155   23.1363  -76.4190 H         1 UNK         0.3020 
    107 H107      -75.3260   22.5248  -74.0576 H         1 UNK         0.1245 
    108 H108      -76.1901   25.4311  -73.6248 H         1 UNK         0.0781 
    109 H109      -74.5329   24.8887  -73.6599 H         1 UNK         0.0781 
    110 H110      -77.9295   24.5046  -71.7059 H         1 UNK         0.0836 
    111 H111      -77.3054   24.5124  -70.0735 H         1 UNK         0.0836 
    112 H112      -77.9969   23.8310  -74.2688 H         1 UNK         0.3022 
    113 H113      -79.5896   20.6662  -73.9656 H         1 UNK         0.0747 
    114 H114      -80.5927   21.3610  -71.8321 H         1 UNK         0.0793 
    115 H115      -78.9030   20.9818  -71.5536 H         1 UNK         0.0793 
    116 H116      -79.4200   22.6603  -71.6432 H         1 UNK         0.0793 
    117 H117      -79.7896   23.5466  -74.4821 H         1 UNK         0.3047 
    118 H118      -82.9644   23.0536  -75.9523 H         1 UNK         0.0822 
    119 H119      -83.7580   25.0348  -74.6788 H         1 UNK         0.0807 
    120 H120      -82.4767   24.8148  -73.4853 H         1 UNK         0.0807 
    121 H121      -83.7541   23.6176  -73.6441 H         1 UNK         0.0807 
    122 H122      -81.4277   25.4277  -75.6455 H         1 UNK         0.2946 
    123 H123      -78.8618   24.8307  -77.8611 H         1 UNK         0.1144 
    124 H124      -79.7037   26.5536  -79.4134 H         1 UNK         0.0793 
    125 H125      -81.3332   26.4064  -78.7488 H         1 UNK         0.0793 
    126 H126      -80.6125   25.0721  -79.6401 H         1 UNK         0.0793 
    127 H127      -79.6356   27.3447  -77.1060 H         1 UNK         0.2896 
@<TRIPOS>BOND
     1    1    2 1    
     2    1   67 1    
     3    1   68 1    
     4    1   69 1    
     5    2    3 2    
     6    2    4 am   BACKBONE|DICT|INTERRES
     7    4    5 1    
     8    4   70 1    
     9    5    6 1    
    10    5   65 1    
    11    5   71 1    
    12    6    7 1    
    13    6   72 1    
    14    6   73 1    
    15    7    8 1    
    16    8    9 1    
    17    8   74 1    
    18    8   75 1    
    19    9   10 ar   
    20    9   14 ar   
    21   10   11 ar   
    22   10   76 1    
    23   11   12 ar   
    24   11   48 1    
    25   12   13 ar   
    26   12   77 1    
    27   13   14 ar   
    28   13   15 1    
    29   14   78 1    
    30   15   16 1    
    31   15   79 1    
    32   15   80 1    
    33   16   17 1    
    34   17   18 1    
    35   17   81 1    
    36   17   82 1    
    37   18   19 1    
    38   18   22 1    
    39   18   83 1    
    40   19   20 am   BACKBONE|DICT|INTERRES
    41   19   21 2    
    42   20   84 1    
    43   20   85 1    
    44   22   23 am   BACKBONE|DICT|INTERRES
    45   22   86 1    
    46   23   24 2    
    47   23   25 1    
    48   25   26 1    
    49   25   27 1    
    50   25   87 1    
    51   26   88 1    
    52   26   89 1    
    53   26   90 1    
    54   27   28 am   BACKBONE|DICT|INTERRES
    55   27   91 1    
    56   28   29 2    
    57   28   30 1    
    58   30   31 1    
    59   30   32 1    
    60   30   92 1    
    61   31   93 1    
    62   31   94 1    
    63   31   95 1    
    64   32   33 am   BACKBONE|DICT|INTERRES
    65   32   96 1    
    66   33   34 2    
    67   33   35 1    
    68   35   36 1    
    69   35   37 1    
    70   35   97 1    
    71   36   98 1    
    72   36   99 1    
    73   36  100 1    
    74   37   38 am   BACKBONE|DICT|INTERRES
    75   37  101 1    
    76   38   39 2    
    77   38   40 1    
    78   40   41 1    
    79   40   42 1    
    80   40  102 1    
    81   41  103 1    
    82   41  104 1    
    83   41  105 1    
    84   42   43 am   BACKBONE|DICT|INTERRES
    85   42  106 1    
    86   43   44 2    
    87   43   45 1    
    88   45   46 1    
    89   45   49 1    
    90   45  107 1    
    91   46   47 1    
    92   46  108 1    
    93   46  109 1    
    94   47   48 1    
    95   48  110 1    
    96   48  111 1    
    97   49   50 am   BACKBONE|DICT|INTERRES
    98   49  112 1    
    99   50   51 2    
   100   50   52 1    
   101   52   53 1    
   102   52   54 1    
   103   52  113 1    
   104   53  114 1    
   105   53  115 1    
   106   53  116 1    
   107   54   55 am   BACKBONE|DICT|INTERRES
   108   54  117 1    
   109   55   56 2    
   110   55   57 1    
   111   57   58 1    
   112   57   59 1    
   113   57  118 1    
   114   58  119 1    
   115   58  120 1    
   116   58  121 1    
   117   59   60 am   BACKBONE|DICT|INTERRES
   118   59  122 1    
   119   60   61 2    
   120   60   62 1    
   121   62   63 1    
   122   62   64 1    
   123   62  123 1    
   124   63  124 1    
   125   63  125 1    
   126   63  126 1    
   127   64   65 am   BACKBONE|DICT|INTERRES
   128   64  127 1    
   129   65   66 2    
@<TRIPOS>SUBSTRUCTURE
     1 UNK         1 GROUP             0       ****    0 ROOT    
