@<TRIPOS>MOLECULE
3R135
127   129    1
SMALL
USER_CHARGES


@<TRIPOS>ATOM
      1 CA        -85.4399   29.8460  -74.4997 C.3       0 UNK        -0.1998 
      2 C         -84.0983   29.1578  -74.7029 C.2       0 UNK         0.4909 
      3 O         -83.7106   28.8961  -75.8425 O.2       0 UNK        -0.5240 
      4 N         -83.3832   28.8720  -73.6079 N.am      1 UNK        -0.4739 
      5 CA        -82.0928   28.1724  -73.6075 C.3       1 UNK         0.0864 
      6 C6        -81.3516   28.3297  -72.2558 C.3       11 UNK        -0.0881 
      7 S7        -81.0600   30.0789  -71.8136 S.3       11 UNK        -0.2682 
      8 C8        -80.2904   29.9274  -70.1684 C.3       11 UNK         0.0289 
      9 C9        -78.8726   29.3864  -70.2676 C.ar      11 UNK        -0.0687 
     10 C10       -78.6354   28.0158  -70.1354 C.ar      11 UNK        -0.0823 
     11 C11       -77.3506   27.4996  -70.3212 C.ar      11 UNK        -0.0830 
     12 C12       -76.2868   28.3691  -70.5738 C.ar      11 UNK        -0.1021 
     13 C13       -76.5100   29.7422  -70.6948 C.ar      11 UNK        -0.0753 
     14 C14       -77.8045   30.2481  -70.5387 C.ar      11 UNK        -0.0933 
     15 C15       -75.3548   30.6617  -71.0496 C.3       11 UNK         0.0166 
     16 S16       -74.9852   30.5582  -72.8278 S.3       11 UNK        -0.2615 
     17 C17       -73.5599   31.6917  -72.9541 C.3       11 UNK        -0.0865 
     18 CA        -72.2063   30.9894  -73.2478 C.3       10 UNK         0.0862 
     19 C         -71.6273   30.2083  -72.0309 C.2       10 UNK         0.5551 
     20 N         -71.0322   29.0347  -72.2126 N.am      10 UNK        -0.7319 
     21 O         -71.6946   30.6857  -70.9008 O.2       10 UNK        -0.5018 
     22 N         -72.2648   30.1979  -74.4872 N.am      10 UNK        -0.4509 
     23 C         -71.3500   30.2272  -75.4617 C.2       10 UNK         0.4899 
     24 O         -70.3757   30.9823  -75.4676 O.2       10 UNK        -0.4839 
     25 CA        -71.5611   29.2285  -76.6161 C.3       9 UNK         0.0222 
     26 CB        -70.3900   29.2211  -77.6206 C.3       9 UNK        -0.1966 
     27 N         -71.8436   27.8574  -76.1713 N.am      9 UNK        -0.4218 
     28 C         -71.1140   27.0980  -75.3365 C.2       9 UNK         0.5020 
     29 O         -70.1414   27.5146  -74.7059 O.2       9 UNK        -0.5274 
     30 CA        -71.5222   25.6211  -75.1594 C.3       8 UNK         0.0270 
     31 CB        -72.1049   25.3836  -73.7558 C.3       8 UNK        -0.1976 
     32 N         -72.4650   25.1360  -76.1727 N.am      8 UNK        -0.4313 
     33 C         -72.1673   24.9337  -77.4646 C.2       8 UNK         0.5041 
     34 O         -71.0331   25.0487  -77.9305 O.2       8 UNK        -0.5577 
     35 CA        -73.3339   24.5847  -78.4071 C.3       7 UNK         0.0284 
     36 CB        -73.5439   23.0638  -78.4705 C.3       7 UNK        -0.1958 
     37 N         -74.5932   25.2467  -78.0465 N.am      7 UNK        -0.4454 
     38 C         -74.7856   26.5749  -78.0465 C.2       7 UNK         0.5089 
     39 O         -73.9286   27.3901  -78.3864 O.2       7 UNK        -0.5125 
     40 CA        -76.1366   27.0862  -77.5179 C.3       6 UNK         0.0408 
     41 CB        -77.2390   26.9405  -78.5780 C.3       6 UNK        -0.1791 
     42 N         -76.5392   26.4116  -76.2827 N.am      6 UNK        -0.4762 
     43 C         -75.8678   26.4805  -75.1229 C.2       6 UNK         0.5007 
     44 O         -74.8781   27.1918  -74.9490 O.2       6 UNK        -0.5032 
     45 CA        -76.3504   25.5582  -73.9863 C.3       5 UNK         0.0783 
     46 C46       -77.5028   26.2104  -73.1931 C.3       11 UNK        -0.0857 
     47 S47       -78.0139   25.2126  -71.7458 S.3       11 UNK        -0.2512 
     48 C48       -77.1268   25.9964  -70.3552 C.3       11 UNK         0.0225 
     49 N         -76.7162   24.2352  -74.4961 N.am      5 UNK        -0.4615 
     50 C         -75.8500   23.3373  -74.9792 C.2       4 UNK         0.5053 
     51 O         -74.6344   23.5176  -75.0262 O.2       4 UNK        -0.5105 
     52 CA        -76.4496   22.0355  -75.5359 C.3       4 UNK         0.0263 
     53 CB        -76.6850   21.0233  -74.4037 C.3       4 UNK        -0.1981 
     54 N         -77.7021   22.2603  -76.2636 N.am      4 UNK        -0.4224 
     55 C         -77.7941   22.9443  -77.4134 C.2       3 UNK         0.4895 
     56 O         -76.8258   23.4153  -78.0087 O.2       3 UNK        -0.5091 
     57 CA        -79.2092   23.1867  -77.9658 C.3       3 UNK         0.0250 
     58 CB        -79.6822   21.9800  -78.7918 C.3       3 UNK        -0.1996 
     59 N         -80.1979   23.4941  -76.9248 N.am      3 UNK        -0.4254 
     60 C         -80.1389   24.5624  -76.1181 C.2       2 UNK         0.5004 
     61 O         -79.2306   25.3973  -76.1515 O.2       2 UNK        -0.5226 
     62 CA        -81.2499   24.7012  -75.0722 C.3       2 UNK         0.0269 
     63 CB        -81.0167   23.7301  -73.8983 C.3       2 UNK        -0.1926 
     64 N         -81.2652   26.0842  -74.5982 N.am      2 UNK        -0.4687 
     65 C         -82.2773   26.6792  -73.9583 C.2       1 UNK         0.5165 
     66 O         -83.3130   26.0931  -73.6297 O.2       1 UNK        -0.5079 
     67 H67       -85.6484   30.0294  -73.4457 H         1 UNK         0.0900 
     68 H68       -85.4532   30.8036  -75.0194 H         1 UNK         0.0900 
     69 H69       -86.2426   29.2283  -74.9015 H         1 UNK         0.0900 
     70 H70       -83.7518   29.1027  -72.6965 H         1 UNK         0.2959 
     71 H71       -81.4747   28.6233  -74.3876 H         1 UNK         0.1079 
     72 H72       -80.3849   27.8249  -72.3031 H         1 UNK         0.0837 
     73 H73       -81.9123   27.8523  -71.4496 H         1 UNK         0.0837 
     74 H74       -80.9049   29.2895  -69.5312 H         1 UNK         0.0685 
     75 H75       -80.2755   30.9097  -69.6938 H         1 UNK         0.0685 
     76 H76       -79.4609   27.3408  -69.9545 H         1 UNK         0.1434 
     77 H77       -75.2918   27.9763  -70.7349 H         1 UNK         0.1329 
     78 H78       -77.9874   31.3073  -70.6592 H         1 UNK         0.1335 
     79 H79       -74.4714   30.3825  -70.4732 H         1 UNK         0.0680 
     80 H80       -75.5901   31.6936  -70.7844 H         1 UNK         0.0680 
     81 H81       -73.4879   32.3073  -72.0555 H         1 UNK         0.1032 
     82 H82       -73.7755   32.3943  -73.7603 H         1 UNK         0.1032 
     83 H83       -71.4901   31.7998  -73.3935 H         1 UNK         0.0461 
     84 H84       -70.6545   28.5504  -71.4144 H         1 UNK         0.3453 
     85 H85       -70.8933   28.6567  -73.1420 H         1 UNK         0.3453 
     86 H86       -73.0228   29.5307  -74.5436 H         1 UNK         0.2984 
     87 H87       -72.4510   29.5641  -77.1505 H         1 UNK         0.0554 
     88 H88       -70.2293   30.2129  -78.0451 H         1 UNK         0.0847 
     89 H89       -70.5865   28.5424  -78.4509 H         1 UNK         0.0847 
     90 H90       -69.4565   28.9116  -77.1490 H         1 UNK         0.0847 
     91 H91       -72.6460   27.4256  -76.6150 H         1 UNK         0.3141 
     92 H92       -70.6100   25.0273  -75.2472 H         1 UNK         0.0743 
     93 H93       -71.3865   25.6617  -72.9836 H         1 UNK         0.0784 
     94 H94       -73.0052   25.9723  -73.5846 H         1 UNK         0.0784 
     95 H95       -72.3545   24.3338  -73.6007 H         1 UNK         0.0784 
     96 H96       -73.4049   24.9202  -75.8551 H         1 UNK         0.3213 
     97 H97       -73.0592   24.9302  -79.4061 H         1 UNK         0.0855 
     98 H98       -73.8343   22.6555  -77.5026 H         1 UNK         0.0814 
     99 H99       -72.6284   22.5561  -78.7770 H         1 UNK         0.0814 
    100 H100      -74.3179   22.7994  -79.1913 H         1 UNK         0.0814 
    101 H101      -75.3765   24.6415  -77.8105 H         1 UNK         0.3105 
    102 H102      -76.0258   28.1488  -77.2914 H         1 UNK         0.0547 
    103 H103      -78.1875   27.3423  -78.2211 H         1 UNK         0.0837 
    104 H104      -77.4022   25.8995  -78.8556 H         1 UNK         0.0837 
    105 H105      -76.9776   27.4827  -79.4876 H         1 UNK         0.0837 
    106 H106      -77.3874   25.8509  -76.3203 H         1 UNK         0.3020 
    107 H107      -75.5057   25.4294  -73.3056 H         1 UNK         0.1245 
    108 H108      -78.3792   26.3355  -73.8291 H         1 UNK         0.0781 
    109 H109      -77.2282   27.2197  -72.8885 H         1 UNK         0.0781 
    110 H110      -76.0646   25.7608  -70.4367 H         1 UNK         0.0836 
    111 H111      -77.4697   25.5567  -69.4177 H         1 UNK         0.0836 
    112 H112      -77.7016   24.0226  -74.5138 H         1 UNK         0.3022 
    113 H113      -75.7261   21.6073  -76.2328 H         1 UNK         0.0747 
    114 H114      -77.0395   20.0685  -74.7924 H         1 UNK         0.0793 
    115 H115      -75.7599   20.8264  -73.8600 H         1 UNK         0.0793 
    116 H116      -77.4170   21.3852  -73.6804 H         1 UNK         0.0793 
    117 H117      -78.5485   21.9010  -75.8472 H         1 UNK         0.3047 
    118 H118      -79.1538   24.0513  -78.6307 H         1 UNK         0.0822 
    119 H119      -80.6401   22.1793  -79.2727 H         1 UNK         0.0807 
    120 H120      -79.7935   21.0852  -78.1781 H         1 UNK         0.0807 
    121 H121      -78.9682   21.7457  -79.5829 H         1 UNK         0.0807 
    122 H122      -80.9723   22.8520  -76.8319 H         1 UNK         0.2946 
    123 H123      -82.2066   24.4811  -75.5518 H         1 UNK         0.1144 
    124 H124      -80.0609   23.9135  -73.4087 H         1 UNK         0.0793 
    125 H125      -81.0165   22.6934  -74.2364 H         1 UNK         0.0793 
    126 H126      -81.7980   23.8176  -73.1434 H         1 UNK         0.0793 
    127 H127      -80.4499   26.6159  -74.8787 H         1 UNK         0.2896 
@<TRIPOS>BOND
     1    1    2 1    
     2    1   67 1    
     3    1   68 1    
     4    1   69 1    
     5    2    3 2    
     6    2    4 am   BACKBONE|DICT|INTERRES
     7    4    5 1    
     8    4   70 1    
     9    5    6 1    
    10    5   65 1    
    11    5   71 1    
    12    6    7 1    
    13    6   72 1    
    14    6   73 1    
    15    7    8 1    
    16    8    9 1    
    17    8   74 1    
    18    8   75 1    
    19    9   10 ar   
    20    9   14 ar   
    21   10   11 ar   
    22   10   76 1    
    23   11   12 ar   
    24   11   48 1    
    25   12   13 ar   
    26   12   77 1    
    27   13   14 ar   
    28   13   15 1    
    29   14   78 1    
    30   15   16 1    
    31   15   79 1    
    32   15   80 1    
    33   16   17 1    
    34   17   18 1    
    35   17   81 1    
    36   17   82 1    
    37   18   19 1    
    38   18   22 1    
    39   18   83 1    
    40   19   20 am   BACKBONE|DICT|INTERRES
    41   19   21 2    
    42   20   84 1    
    43   20   85 1    
    44   22   23 am   BACKBONE|DICT|INTERRES
    45   22   86 1    
    46   23   24 2    
    47   23   25 1    
    48   25   26 1    
    49   25   27 1    
    50   25   87 1    
    51   26   88 1    
    52   26   89 1    
    53   26   90 1    
    54   27   28 am   BACKBONE|DICT|INTERRES
    55   27   91 1    
    56   28   29 2    
    57   28   30 1    
    58   30   31 1    
    59   30   32 1    
    60   30   92 1    
    61   31   93 1    
    62   31   94 1    
    63   31   95 1    
    64   32   33 am   BACKBONE|DICT|INTERRES
    65   32   96 1    
    66   33   34 2    
    67   33   35 1    
    68   35   36 1    
    69   35   37 1    
    70   35   97 1    
    71   36   98 1    
    72   36   99 1    
    73   36  100 1    
    74   37   38 am   BACKBONE|DICT|INTERRES
    75   37  101 1    
    76   38   39 2    
    77   38   40 1    
    78   40   41 1    
    79   40   42 1    
    80   40  102 1    
    81   41  103 1    
    82   41  104 1    
    83   41  105 1    
    84   42   43 am   BACKBONE|DICT|INTERRES
    85   42  106 1    
    86   43   44 2    
    87   43   45 1    
    88   45   46 1    
    89   45   49 1    
    90   45  107 1    
    91   46   47 1    
    92   46  108 1    
    93   46  109 1    
    94   47   48 1    
    95   48  110 1    
    96   48  111 1    
    97   49   50 am   BACKBONE|DICT|INTERRES
    98   49  112 1    
    99   50   51 2    
   100   50   52 1    
   101   52   53 1    
   102   52   54 1    
   103   52  113 1    
   104   53  114 1    
   105   53  115 1    
   106   53  116 1    
   107   54   55 am   BACKBONE|DICT|INTERRES
   108   54  117 1    
   109   55   56 2    
   110   55   57 1    
   111   57   58 1    
   112   57   59 1    
   113   57  118 1    
   114   58  119 1    
   115   58  120 1    
   116   58  121 1    
   117   59   60 am   BACKBONE|DICT|INTERRES
   118   59  122 1    
   119   60   61 2    
   120   60   62 1    
   121   62   63 1    
   122   62   64 1    
   123   62  123 1    
   124   63  124 1    
   125   63  125 1    
   126   63  126 1    
   127   64   65 am   BACKBONE|DICT|INTERRES
   128   64  127 1    
   129   65   66 2    
@<TRIPOS>SUBSTRUCTURE
     1 UNK         1 GROUP             0       ****    0 ROOT    
