@<TRIPOS>MOLECULE
3R135
127   129    1
SMALL
USER_CHARGES


@<TRIPOS>ATOM
      1 CA        -78.2095   32.3256  -72.9029 C.3       0 UNK        -0.1998 
      2 C         -79.1629   32.0341  -74.0579 C.2       0 UNK         0.4909 
      3 O         -79.2933   32.8704  -74.9496 O.2       0 UNK        -0.5240 
      4 N         -79.8540   30.8897  -74.0984 N.am      1 UNK        -0.4739 
      5 CA        -79.8444   29.7691  -73.1595 C.3       1 UNK         0.0864 
      6 C6        -80.5503   30.1259  -71.8180 C.3       11 UNK        -0.0881 
      7 S7        -80.9273   28.7323  -70.6927 S.3       11 UNK        -0.2682 
      8 C8        -79.4972   28.7294  -69.5685 C.3       11 UNK         0.0289 
      9 C9        -78.3131   27.9799  -70.1611 C.ar      11 UNK        -0.0687 
     10 C10       -78.2079   26.5938  -70.0027 C.ar      11 UNK        -0.0823 
     11 C11       -77.0944   25.9041  -70.4932 C.ar      11 UNK        -0.0830 
     12 C12       -76.0989   26.6124  -71.1756 C.ar      11 UNK        -0.1021 
     13 C13       -76.2085   27.9919  -71.3714 C.ar      11 UNK        -0.0753 
     14 C14       -77.3056   28.6730  -70.8371 C.ar      11 UNK        -0.0933 
     15 C15       -75.1259   28.7487  -72.1311 C.3       11 UNK         0.0166 
     16 S16       -75.7578   29.5422  -73.6457 S.3       11 UNK        -0.2615 
     17 C17       -76.3364   28.1149  -74.6292 C.3       11 UNK        -0.0865 
     18 CA        -76.3088   28.3562  -76.1629 C.3       10 UNK         0.0862 
     19 C         -77.4298   29.3262  -76.6341 C.2       10 UNK         0.5551 
     20 N         -77.1130   30.5250  -77.1084 N.am      10 UNK        -0.7319 
     21 O         -78.6030   28.9734  -76.5872 O.2       10 UNK        -0.5018 
     22 N         -74.9603   28.7179  -76.6161 N.am      10 UNK        -0.4509 
     23 C         -74.4744   28.5546  -77.8520 C.2       10 UNK         0.4899 
     24 O         -75.1171   28.0554  -78.7748 O.2       10 UNK        -0.4839 
     25 CA        -73.0062   28.9585  -78.0990 C.3       9 UNK         0.0222 
     26 CB        -72.9113   30.2741  -78.8969 C.3       9 UNK        -0.1966 
     27 N         -72.1748   28.9848  -76.8830 N.am      9 UNK        -0.4218 
     28 C         -72.2218   29.8459  -75.8541 C.2       9 UNK         0.5020 
     29 O         -72.9623   30.8281  -75.8148 O.2       9 UNK        -0.5274 
     30 CA        -71.3983   29.4542  -74.6208 C.3       8 UNK         0.0270 
     31 CB        -71.5945   30.4082  -73.4264 C.3       8 UNK        -0.1976 
     32 N         -71.7962   28.1012  -74.2385 N.am      8 UNK        -0.4313 
     33 C         -70.9671   27.1077  -73.9085 C.2       8 UNK         0.5041 
     34 O         -69.7497   27.2393  -73.7759 O.2       8 UNK        -0.5577 
     35 CA        -71.6052   25.7208  -73.7136 C.3       7 UNK         0.0284 
     36 CB        -71.9559   25.4948  -72.2335 C.3       7 UNK        -0.1958 
     37 N         -72.7975   25.4665  -74.5351 N.am      7 UNK        -0.4454 
     38 C         -72.8399   25.4370  -75.8766 C.2       7 UNK         0.5089 
     39 O         -71.9000   25.7896  -76.5902 O.2       7 UNK        -0.5125 
     40 CA        -74.1512   24.9541  -76.5403 C.3       6 UNK         0.0408 
     41 CB        -73.8772   24.0744  -77.7767 C.3       6 UNK        -0.1791 
     42 N         -75.1054   24.2954  -75.6347 N.am      6 UNK        -0.4762 
     43 C         -74.9232   23.1647  -74.9313 C.2       6 UNK         0.5007 
     44 O         -73.8956   22.4880  -74.9527 O.2       6 UNK        -0.5032 
     45 CA        -76.0893   22.7588  -74.0158 C.3       5 UNK         0.0783 
     46 C46       -76.2211   23.7899  -72.8699 C.3       11 UNK        -0.0857 
     47 S47       -77.4934   23.3801  -71.6378 S.3       11 UNK        -0.2512 
     48 C48       -76.9412   24.4072  -70.2355 C.3       11 UNK         0.0225 
     49 N         -77.3119   22.6191  -74.8096 N.am      5 UNK        -0.4615 
     50 C         -77.5850   21.5503  -75.5736 C.2       4 UNK         0.5053 
     51 O         -76.8812   20.5404  -75.6071 O.2       4 UNK        -0.5105 
     52 CA        -78.8494   21.5987  -76.4519 C.3       4 UNK         0.0263 
     53 CB        -80.0239   20.9126  -75.7355 C.3       4 UNK        -0.1981 
     54 N         -79.2441   22.9567  -76.8262 N.am      4 UNK        -0.4224 
     55 C         -78.5513   23.7695  -77.6379 C.2       3 UNK         0.4895 
     56 O         -77.5517   23.4219  -78.2654 O.2       3 UNK        -0.5091 
     57 CA        -79.0407   25.2268  -77.7459 C.3       3 UNK         0.0250 
     58 CB        -79.8270   25.4384  -79.0493 C.3       3 UNK        -0.1996 
     59 N         -79.8620   25.6611  -76.6082 N.am      3 UNK        -0.4254 
     60 C         -79.4231   25.7549  -75.3461 C.2       2 UNK         0.5004 
     61 O         -78.2666   25.4919  -75.0043 O.2       2 UNK        -0.5226 
     62 CA        -80.4576   26.1447  -74.2844 C.3       2 UNK         0.0269 
     63 CB        -80.6106   25.0323  -73.2359 C.3       2 UNK        -0.1926 
     64 N         -80.0254   27.3668  -73.6170 N.am      2 UNK        -0.4687 
     65 C         -80.4880   28.5877  -73.9089 C.2       1 UNK         0.5165 
     66 O         -81.3869   28.8041  -74.7283 O.2       1 UNK        -0.5079 
     67 H67       -78.7330   32.8517  -72.1054 H         1 UNK         0.0900 
     68 H68       -77.3939   32.9625  -73.2449 H         1 UNK         0.0900 
     69 H69       -77.7593   31.4272  -72.4904 H         1 UNK         0.0900 
     70 H70       -80.4545   30.7078  -74.8948 H         1 UNK         0.2959 
     71 H71       -78.8083   29.4925  -72.9691 H         1 UNK         0.1079 
     72 H72       -79.9687   30.8672  -71.2706 H         1 UNK         0.0837 
     73 H73       -81.5032   30.6123  -72.0342 H         1 UNK         0.0837 
     74 H74       -79.2195   29.7518  -69.3082 H         1 UNK         0.0685 
     75 H75       -79.7943   28.2535  -68.6327 H         1 UNK         0.0685 
     76 H76       -78.9821   26.0563  -69.4719 H         1 UNK         0.1434 
     77 H77       -75.2291   26.0905  -71.5461 H         1 UNK         0.1329 
     78 H78       -77.3738   29.7453  -70.9495 H         1 UNK         0.1335 
     79 H79       -74.7093   29.5187  -71.4805 H         1 UNK         0.0680 
     80 H80       -74.2973   28.0905  -72.3939 H         1 UNK         0.0680 
     81 H81       -77.3400   27.8509  -74.2980 H         1 UNK         0.1032 
     82 H82       -75.7184   27.2488  -74.3911 H         1 UNK         0.1032 
     83 H83       -76.5518   27.3987  -76.6272 H         1 UNK         0.0461 
     84 H84       -76.1512   30.8215  -77.1410 H         1 UNK         0.3453 
     85 H85       -77.8467   31.1456  -77.4106 H         1 UNK         0.3453 
     86 H86       -74.4083   29.2577  -75.9616 H         1 UNK         0.2984 
     87 H87       -72.5778   28.1701  -78.7200 H         1 UNK         0.0554 
     88 H88       -73.4181   30.1802  -79.8583 H         1 UNK         0.0847 
     89 H89       -71.8746   30.5404  -79.1025 H         1 UNK         0.0847 
     90 H90       -73.3753   31.1092  -78.3719 H         1 UNK         0.0847 
     91 H91       -71.5759   28.1745  -76.7740 H         1 UNK         0.3141 
     92 H92       -70.3474   29.4756  -74.9174 H         1 UNK         0.0743 
     93 H93       -70.9885   30.1026  -72.5734 H         1 UNK         0.0784 
     94 H94       -72.6355   30.4418  -73.1026 H         1 UNK         0.0784 
     95 H95       -71.2996   31.4254  -73.6870 H         1 UNK         0.0784 
     96 H96       -72.7763   27.8812  -74.3375 H         1 UNK         0.3213 
     97 H97       -70.8545   24.9816  -74.0014 H         1 UNK         0.0855 
     98 H98       -72.7170   26.1929  -71.8844 H         1 UNK         0.0814 
     99 H99       -71.0775   25.6317  -71.6010 H         1 UNK         0.0814 
    100 H100      -72.3203   24.4820  -72.0598 H         1 UNK         0.0814 
    101 H101      -73.6185   25.1461  -74.0465 H         1 UNK         0.3105 
    102 H102      -74.6583   25.8503  -76.8919 H         1 UNK         0.0547 
    103 H103      -73.3000   24.6180  -78.5256 H         1 UNK         0.0837 
    104 H104      -73.3127   23.1778  -77.5197 H         1 UNK         0.0837 
    105 H105      -74.8056   23.7611  -78.2537 H         1 UNK         0.0837 
    106 H106      -76.0054   24.7522  -75.5463 H         1 UNK         0.3020 
    107 H107      -75.8434   21.7902  -73.5735 H         1 UNK         0.1245 
    108 H108      -75.2671   23.8746  -72.3458 H         1 UNK         0.0781 
    109 H109      -76.4525   24.7811  -73.2619 H         1 UNK         0.0781 
    110 H110      -75.9019   24.1745  -69.9985 H         1 UNK         0.0836 
    111 H111      -77.5162   24.1224  -69.3531 H         1 UNK         0.0836 
    112 H112      -77.9164   23.4313  -74.8437 H         1 UNK         0.3022 
    113 H113      -78.6345   21.0459  -77.3690 H         1 UNK         0.0747 
    114 H114      -80.9091   20.8729  -76.3707 H         1 UNK         0.0793 
    115 H115      -79.7717   19.8847  -75.4706 H         1 UNK         0.0793 
    116 H116      -80.2929   21.4294  -74.8132 H         1 UNK         0.0793 
    117 H117      -80.0676   23.3286  -76.3775 H         1 UNK         0.3047 
    118 H118      -78.1531   25.8625  -77.7753 H         1 UNK         0.0822 
    119 H119      -80.1005   26.4856  -79.1813 H         1 UNK         0.0807 
    120 H120      -80.7417   24.8447  -79.0715 H         1 UNK         0.0807 
    121 H121      -79.2301   25.1505  -79.9160 H         1 UNK         0.0807 
    122 H122      -80.8196   25.9089  -76.8137 H         1 UNK         0.2946 
    123 H123      -81.4293   26.2908  -74.7619 H         1 UNK         0.1144 
    124 H124      -81.3958   25.2729  -72.5191 H         1 UNK         0.0793 
    125 H125      -79.6888   24.8823  -72.6757 H         1 UNK         0.0793 
    126 H126      -80.8728   24.0810  -73.7006 H         1 UNK         0.0793 
    127 H127      -79.2872   27.2617  -72.9345 H         1 UNK         0.2896 
@<TRIPOS>BOND
     1    1    2 1    
     2    1   67 1    
     3    1   68 1    
     4    1   69 1    
     5    2    3 2    
     6    2    4 am   BACKBONE|DICT|INTERRES
     7    4    5 1    
     8    4   70 1    
     9    5    6 1    
    10    5   65 1    
    11    5   71 1    
    12    6    7 1    
    13    6   72 1    
    14    6   73 1    
    15    7    8 1    
    16    8    9 1    
    17    8   74 1    
    18    8   75 1    
    19    9   10 ar   
    20    9   14 ar   
    21   10   11 ar   
    22   10   76 1    
    23   11   12 ar   
    24   11   48 1    
    25   12   13 ar   
    26   12   77 1    
    27   13   14 ar   
    28   13   15 1    
    29   14   78 1    
    30   15   16 1    
    31   15   79 1    
    32   15   80 1    
    33   16   17 1    
    34   17   18 1    
    35   17   81 1    
    36   17   82 1    
    37   18   19 1    
    38   18   22 1    
    39   18   83 1    
    40   19   20 am   BACKBONE|DICT|INTERRES
    41   19   21 2    
    42   20   84 1    
    43   20   85 1    
    44   22   23 am   BACKBONE|DICT|INTERRES
    45   22   86 1    
    46   23   24 2    
    47   23   25 1    
    48   25   26 1    
    49   25   27 1    
    50   25   87 1    
    51   26   88 1    
    52   26   89 1    
    53   26   90 1    
    54   27   28 am   BACKBONE|DICT|INTERRES
    55   27   91 1    
    56   28   29 2    
    57   28   30 1    
    58   30   31 1    
    59   30   32 1    
    60   30   92 1    
    61   31   93 1    
    62   31   94 1    
    63   31   95 1    
    64   32   33 am   BACKBONE|DICT|INTERRES
    65   32   96 1    
    66   33   34 2    
    67   33   35 1    
    68   35   36 1    
    69   35   37 1    
    70   35   97 1    
    71   36   98 1    
    72   36   99 1    
    73   36  100 1    
    74   37   38 am   BACKBONE|DICT|INTERRES
    75   37  101 1    
    76   38   39 2    
    77   38   40 1    
    78   40   41 1    
    79   40   42 1    
    80   40  102 1    
    81   41  103 1    
    82   41  104 1    
    83   41  105 1    
    84   42   43 am   BACKBONE|DICT|INTERRES
    85   42  106 1    
    86   43   44 2    
    87   43   45 1    
    88   45   46 1    
    89   45   49 1    
    90   45  107 1    
    91   46   47 1    
    92   46  108 1    
    93   46  109 1    
    94   47   48 1    
    95   48  110 1    
    96   48  111 1    
    97   49   50 am   BACKBONE|DICT|INTERRES
    98   49  112 1    
    99   50   51 2    
   100   50   52 1    
   101   52   53 1    
   102   52   54 1    
   103   52  113 1    
   104   53  114 1    
   105   53  115 1    
   106   53  116 1    
   107   54   55 am   BACKBONE|DICT|INTERRES
   108   54  117 1    
   109   55   56 2    
   110   55   57 1    
   111   57   58 1    
   112   57   59 1    
   113   57  118 1    
   114   58  119 1    
   115   58  120 1    
   116   58  121 1    
   117   59   60 am   BACKBONE|DICT|INTERRES
   118   59  122 1    
   119   60   61 2    
   120   60   62 1    
   121   62   63 1    
   122   62   64 1    
   123   62  123 1    
   124   63  124 1    
   125   63  125 1    
   126   63  126 1    
   127   64   65 am   BACKBONE|DICT|INTERRES
   128   64  127 1    
   129   65   66 2    
@<TRIPOS>SUBSTRUCTURE
     1 UNK         1 GROUP             0       ****    0 ROOT    
