@<TRIPOS>MOLECULE
3R135
127   129    1
SMALL
USER_CHARGES


@<TRIPOS>ATOM
      1 CA        -85.8410   29.3416  -76.0779 C.3       0 UNK        -0.1998 
      2 C         -84.3416   29.0882  -76.1214 C.2       0 UNK         0.4909 
      3 O         -83.7025   29.3723  -77.1347 O.2       0 UNK        -0.5240 
      4 N         -83.7757   28.5592  -75.0277 N.am      1 UNK        -0.4739 
      5 CA        -82.3521   28.2188  -74.9023 C.3       1 UNK         0.0864 
      6 C6        -81.9703   27.9805  -73.4184 C.3       11 UNK        -0.0881 
      7 S7        -80.1778   28.1143  -73.1149 S.3       11 UNK        -0.2682 
      8 C8        -80.1596   28.6506  -71.3773 C.3       11 UNK         0.0289 
      9 C9        -78.7312   28.7491  -70.8693 C.ar      11 UNK        -0.0687 
     10 C10       -78.0995   27.6238  -70.3346 C.ar      11 UNK        -0.0823 
     11 C11       -76.7619   27.6879  -69.9355 C.ar      11 UNK        -0.0830 
     12 C12       -76.0737   28.9025  -70.0242 C.ar      11 UNK        -0.1021 
     13 C13       -76.6916   30.0382  -70.5638 C.ar      11 UNK        -0.0753 
     14 C14       -78.0255   29.9511  -70.9761 C.ar      11 UNK        -0.0933 
     15 C15       -75.9550   31.3701  -70.7255 C.3       11 UNK         0.0166 
     16 S16       -74.1466   31.2496  -70.9696 S.3       11 UNK        -0.2615 
     17 C17       -74.0305   30.2811  -72.5149 C.3       11 UNK        -0.0865 
     18 CA        -72.5847   29.7961  -72.8206 C.3       10 UNK         0.0862 
     19 C         -72.1302   28.5656  -71.9748 C.2       10 UNK         0.5551 
     20 N         -71.2493   27.7106  -72.4831 N.am      10 UNK        -0.7319 
     21 O         -72.5656   28.3744  -70.8429 O.2       10 UNK        -0.5018 
     22 N         -72.4269   29.5425  -74.2579 N.am      10 UNK        -0.4509 
     23 C         -71.6118   30.1796  -75.1025 C.2       10 UNK         0.4899 
     24 O         -70.9300   31.1582  -74.7934 O.2       10 UNK        -0.4839 
     25 CA        -71.5504   29.6115  -76.5374 C.3       9 UNK         0.0222 
     26 CB        -70.3510   30.1523  -77.3441 C.3       9 UNK        -0.1966 
     27 N         -71.5871   28.1417  -76.5949 N.am      9 UNK        -0.4218 
     28 C         -70.7332   27.2795  -76.0176 C.2       9 UNK         0.5020 
     29 O         -69.7889   27.6354  -75.3106 O.2       9 UNK        -0.5274 
     30 CA        -70.9670   25.7658  -76.2207 C.3       8 UNK         0.0270 
     31 CB        -71.0167   25.0295  -74.8708 C.3       8 UNK        -0.1976 
     32 N         -72.1818   25.4413  -76.9720 N.am      8 UNK        -0.4313 
     33 C         -72.3119   25.4977  -78.3038 C.2       8 UNK         0.5041 
     34 O         -71.3932   25.7829  -79.0721 O.2       8 UNK        -0.5577 
     35 CA        -73.7210   25.2405  -78.8660 C.3       7 UNK         0.0284 
     36 CB        -73.9536   23.7392  -79.1004 C.3       7 UNK        -0.1958 
     37 N         -74.7715   25.7747  -77.9933 N.am      7 UNK        -0.4454 
     38 C         -74.9874   27.0813  -77.7812 C.2       7 UNK         0.5089 
     39 O         -74.3616   27.9799  -78.3434 O.2       7 UNK        -0.5125 
     40 CA        -76.0330   27.4433  -76.7146 C.3       6 UNK         0.0408 
     41 CB        -77.4527   27.4042  -77.2989 C.3       6 UNK        -0.1791 
     42 N         -75.9518   26.5710  -75.5404 N.am      6 UNK        -0.4762 
     43 C         -74.9212   26.5713  -74.6790 C.2       6 UNK         0.5007 
     44 O         -73.9498   27.3144  -74.7886 O.2       6 UNK        -0.5032 
     45 CA        -74.9637   25.5695  -73.5079 C.3       5 UNK         0.0783 
     46 C46       -75.6662   26.2458  -72.3122 C.3       11 UNK        -0.0857 
     47 S47       -75.8925   25.1871  -70.8419 S.3       11 UNK        -0.2512 
     48 C48       -76.0279   26.4247  -69.4976 C.3       11 UNK         0.0225 
     49 N         -75.5793   24.2954  -73.8834 N.am      5 UNK        -0.4615 
     50 C         -75.1714   23.5013  -74.8830 C.2       4 UNK         0.5053 
     51 O         -74.1671   23.7207  -75.5610 O.2       4 UNK        -0.5105 
     52 CA        -76.0608   22.2911  -75.2226 C.3       4 UNK         0.0263 
     53 CB        -75.4700   21.0089  -74.6158 C.3       4 UNK        -0.1981 
     54 N         -77.4609   22.4318  -74.7971 N.am      4 UNK        -0.4224 
     55 C         -78.3011   23.3943  -75.2046 C.2       3 UNK         0.4895 
     56 O         -77.9869   24.2992  -75.9826 O.2       3 UNK        -0.5091 
     57 CA        -79.7014   23.3740  -74.5848 C.3       3 UNK         0.0250 
     58 CB        -79.6816   24.0191  -73.1866 C.3       3 UNK        -0.1996 
     59 N         -80.6158   24.1231  -75.4406 N.am      3 UNK        -0.4254 
     60 C         -81.8812   23.7925  -75.7156 C.2       2 UNK         0.5004 
     61 O         -82.4429   22.7949  -75.2584 O.2       2 UNK        -0.5226 
     62 CA        -82.6572   24.7720  -76.6176 C.3       2 UNK         0.0269 
     63 CB        -84.0181   24.2122  -77.0730 C.3       2 UNK        -0.1926 
     64 N         -82.8780   26.0425  -75.9236 N.am      2 UNK        -0.4687 
     65 C         -81.9622   27.0121  -75.7850 C.2       1 UNK         0.5165 
     66 O         -80.8525   26.9717  -76.3182 O.2       1 UNK        -0.5079 
     67 H67       -86.2766   29.0531  -75.1215 H         1 UNK         0.0900 
     68 H68       -86.0474   30.3994  -76.2387 H         1 UNK         0.0900 
     69 H69       -86.3400   28.7738  -76.8628 H         1 UNK         0.0900 
     70 H70       -84.3521   28.3572  -74.2228 H         1 UNK         0.2959 
     71 H71       -81.7840   29.0777  -75.2679 H         1 UNK         0.1079 
     72 H72       -82.4659   28.7248  -72.7928 H         1 UNK         0.0837 
     73 H73       -82.3225   27.0093  -73.0648 H         1 UNK         0.0837 
     74 H74       -80.6619   29.6149  -71.2852 H         1 UNK         0.0685 
     75 H75       -80.7263   27.9425  -70.7705 H         1 UNK         0.0685 
     76 H76       -78.6296   26.6823  -70.2838 H         1 UNK         0.1434 
     77 H77       -75.0384   28.9470  -69.7156 H         1 UNK         0.1329 
     78 H78       -78.5133   30.8173  -71.4023 H         1 UNK         0.1335 
     79 H79       -76.3702   31.9246  -71.5687 H         1 UNK         0.0680 
     80 H80       -76.1420   31.9747  -69.8373 H         1 UNK         0.0680 
     81 H81       -74.7224   29.4387  -72.4919 H         1 UNK         0.1032 
     82 H82       -74.3830   30.9298  -73.3184 H         1 UNK         0.1032 
     83 H83       -71.9015   30.5973  -72.5344 H         1 UNK         0.0461 
     84 H84       -70.8472   27.8636  -73.3986 H         1 UNK         0.3453 
     85 H85       -70.9517   26.9270  -71.9251 H         1 UNK         0.3453 
     86 H86       -72.9284   28.7190  -74.5929 H         1 UNK         0.2984 
     87 H87       -72.4603   29.9522  -77.0336 H         1 UNK         0.0554 
     88 H88       -70.3491   29.7618  -78.3617 H         1 UNK         0.0847 
     89 H89       -69.4001   29.8866  -76.8809 H         1 UNK         0.0847 
     90 H90       -70.3849   31.2400  -77.4166 H         1 UNK         0.0847 
     91 H91       -72.3615   27.7519  -77.1168 H         1 UNK         0.3141 
     92 H92       -70.1079   25.3860  -76.7775 H         1 UNK         0.0743 
     93 H93       -71.8232   25.4039  -74.2417 H         1 UNK         0.0784 
     94 H94       -71.1673   23.9582  -75.0064 H         1 UNK         0.0784 
     95 H95       -70.0855   25.1566  -74.3173 H         1 UNK         0.0784 
     96 H96       -72.9797   25.1263  -76.4282 H         1 UNK         0.3213 
     97 H97       -73.7913   25.7508  -79.8293 H         1 UNK         0.0855 
     98 H98       -73.8954   23.1673  -78.1739 H         1 UNK         0.0814 
     99 H99       -73.2033   23.3323  -79.7798 H         1 UNK         0.0814 
    100 H100      -74.9296   23.5536  -79.5490 H         1 UNK         0.0814 
    101 H101      -75.3096   25.1077  -77.4580 H         1 UNK         0.3105 
    102 H102      -75.8336   28.4659  -76.3864 H         1 UNK         0.0547 
    103 H103      -78.1934   27.7072  -76.5585 H         1 UNK         0.0837 
    104 H104      -77.5448   28.0850  -78.1460 H         1 UNK         0.0837 
    105 H105      -77.7223   26.4081  -77.6513 H         1 UNK         0.0837 
    106 H106      -76.6992   25.8949  -75.4221 H         1 UNK         0.3020 
    107 H107      -73.9328   25.3560  -73.2201 H         1 UNK         0.1245 
    108 H108      -76.6516   26.6155  -72.6056 H         1 UNK         0.0781 
    109 H109      -75.0844   27.1186  -72.0114 H         1 UNK         0.0781 
    110 H110      -75.0221   26.6681  -69.1511 H         1 UNK         0.0836 
    111 H111      -76.5454   25.9774  -68.6480 H         1 UNK         0.0836 
    112 H112      -76.3994   24.0294  -73.3598 H         1 UNK         0.3022 
    113 H113      -76.0579   22.1888  -76.3098 H         1 UNK         0.0747 
    114 H114      -76.0287   20.1265  -74.9285 H         1 UNK         0.0793 
    115 H115      -74.4371   20.8654  -74.9370 H         1 UNK         0.0793 
    116 H116      -75.4706   21.0403  -73.5255 H         1 UNK         0.0793 
    117 H117      -77.8005   21.7392  -74.1447 H         1 UNK         0.3047 
    118 H118      -80.0277   22.3345  -74.5068 H         1 UNK         0.0822 
    119 H119      -79.3318   25.0520  -73.2243 H         1 UNK         0.0807 
    120 H120      -79.0243   23.4757  -72.5068 H         1 UNK         0.0807 
    121 H121      -80.6757   24.0226  -72.7391 H         1 UNK         0.0807 
    122 H122      -80.2225   24.9564  -75.8679 H         1 UNK         0.2946 
    123 H123      -82.0523   24.9474  -77.5107 H         1 UNK         0.1144 
    124 H124      -83.8929   23.2677  -77.6042 H         1 UNK         0.0793 
    125 H125      -84.6844   24.0267  -76.2295 H         1 UNK         0.0793 
    126 H126      -84.5215   24.9001  -77.7526 H         1 UNK         0.0793 
    127 H127      -83.7613   26.1501  -75.4466 H         1 UNK         0.2896 
@<TRIPOS>BOND
     1    1    2 1    
     2    1   67 1    
     3    1   68 1    
     4    1   69 1    
     5    2    3 2    
     6    2    4 am   BACKBONE|DICT|INTERRES
     7    4    5 1    
     8    4   70 1    
     9    5    6 1    
    10    5   65 1    
    11    5   71 1    
    12    6    7 1    
    13    6   72 1    
    14    6   73 1    
    15    7    8 1    
    16    8    9 1    
    17    8   74 1    
    18    8   75 1    
    19    9   10 ar   
    20    9   14 ar   
    21   10   11 ar   
    22   10   76 1    
    23   11   12 ar   
    24   11   48 1    
    25   12   13 ar   
    26   12   77 1    
    27   13   14 ar   
    28   13   15 1    
    29   14   78 1    
    30   15   16 1    
    31   15   79 1    
    32   15   80 1    
    33   16   17 1    
    34   17   18 1    
    35   17   81 1    
    36   17   82 1    
    37   18   19 1    
    38   18   22 1    
    39   18   83 1    
    40   19   20 am   BACKBONE|DICT|INTERRES
    41   19   21 2    
    42   20   84 1    
    43   20   85 1    
    44   22   23 am   BACKBONE|DICT|INTERRES
    45   22   86 1    
    46   23   24 2    
    47   23   25 1    
    48   25   26 1    
    49   25   27 1    
    50   25   87 1    
    51   26   88 1    
    52   26   89 1    
    53   26   90 1    
    54   27   28 am   BACKBONE|DICT|INTERRES
    55   27   91 1    
    56   28   29 2    
    57   28   30 1    
    58   30   31 1    
    59   30   32 1    
    60   30   92 1    
    61   31   93 1    
    62   31   94 1    
    63   31   95 1    
    64   32   33 am   BACKBONE|DICT|INTERRES
    65   32   96 1    
    66   33   34 2    
    67   33   35 1    
    68   35   36 1    
    69   35   37 1    
    70   35   97 1    
    71   36   98 1    
    72   36   99 1    
    73   36  100 1    
    74   37   38 am   BACKBONE|DICT|INTERRES
    75   37  101 1    
    76   38   39 2    
    77   38   40 1    
    78   40   41 1    
    79   40   42 1    
    80   40  102 1    
    81   41  103 1    
    82   41  104 1    
    83   41  105 1    
    84   42   43 am   BACKBONE|DICT|INTERRES
    85   42  106 1    
    86   43   44 2    
    87   43   45 1    
    88   45   46 1    
    89   45   49 1    
    90   45  107 1    
    91   46   47 1    
    92   46  108 1    
    93   46  109 1    
    94   47   48 1    
    95   48  110 1    
    96   48  111 1    
    97   49   50 am   BACKBONE|DICT|INTERRES
    98   49  112 1    
    99   50   51 2    
   100   50   52 1    
   101   52   53 1    
   102   52   54 1    
   103   52  113 1    
   104   53  114 1    
   105   53  115 1    
   106   53  116 1    
   107   54   55 am   BACKBONE|DICT|INTERRES
   108   54  117 1    
   109   55   56 2    
   110   55   57 1    
   111   57   58 1    
   112   57   59 1    
   113   57  118 1    
   114   58  119 1    
   115   58  120 1    
   116   58  121 1    
   117   59   60 am   BACKBONE|DICT|INTERRES
   118   59  122 1    
   119   60   61 2    
   120   60   62 1    
   121   62   63 1    
   122   62   64 1    
   123   62  123 1    
   124   63  124 1    
   125   63  125 1    
   126   63  126 1    
   127   64   65 am   BACKBONE|DICT|INTERRES
   128   64  127 1    
   129   65   66 2    
@<TRIPOS>SUBSTRUCTURE
     1 UNK         1 GROUP             0       ****    0 ROOT    
