@<TRIPOS>MOLECULE
3R135
127   129    1
SMALL
USER_CHARGES


@<TRIPOS>ATOM
      1 CA        -83.7437   25.1351  -75.5376 C.3       0 UNK        -0.1998 
      2 C         -82.6091   25.9351  -74.9170 C.2       0 UNK         0.4909 
      3 O         -81.5440   25.3748  -74.6597 O.2       0 UNK        -0.5240 
      4 N         -82.8262   27.2385  -74.6865 N.am      1 UNK        -0.4739 
      5 CA        -81.8732   28.1919  -74.1009 C.3       1 UNK         0.0864 
      6 C6        -81.6956   27.9736  -72.5712 C.3       11 UNK        -0.0881 
      7 S7        -81.2236   29.5199  -71.7298 S.3       11 UNK        -0.2682 
      8 C8        -80.2123   28.9077  -70.3450 C.3       11 UNK         0.0289 
      9 C9        -78.8033   28.5036  -70.7624 C.ar      11 UNK        -0.0687 
     10 C10       -78.3087   27.2381  -70.4330 C.ar      11 UNK        -0.0823 
     11 C11       -76.9902   26.8874  -70.7397 C.ar      11 UNK        -0.0830 
     12 C12       -76.1702   27.8055  -71.4010 C.ar      11 UNK        -0.1021 
     13 C13       -76.6530   29.0729  -71.7434 C.ar      11 UNK        -0.0753 
     14 C14       -77.9682   29.4163  -71.4156 C.ar      11 UNK        -0.0933 
     15 C15       -75.7555   30.0777  -72.4528 C.3       11 UNK         0.0166 
     16 S16       -74.3894   30.6148  -71.3789 S.3       11 UNK        -0.2615 
     17 C17       -73.8853   32.1997  -72.1411 C.3       11 UNK        -0.0865 
     18 CA        -72.4483   32.2170  -72.7274 C.3       10 UNK         0.0862 
     19 C         -71.3546   31.9293  -71.6535 C.2       10 UNK         0.5551 
     20 N         -70.5527   30.8793  -71.7850 N.am      10 UNK        -0.7319 
     21 O         -71.2257   32.6839  -70.6923 O.2       10 UNK        -0.5018 
     22 N         -72.3518   31.4347  -73.9724 N.am      10 UNK        -0.4509 
     23 C         -71.3852   31.5822  -74.8886 C.2       10 UNK         0.4899 
     24 O         -70.4641   32.3924  -74.7728 O.2       10 UNK        -0.4839 
     25 CA        -71.4555   30.6867  -76.1431 C.3       9 UNK         0.0222 
     26 CB        -70.1402   30.6934  -76.9462 C.3       9 UNK        -0.1966 
     27 N         -71.8148   29.2979  -75.8410 N.am      9 UNK        -0.4218 
     28 C         -73.0631   28.8416  -75.6895 C.2       9 UNK         0.5020 
     29 O         -74.0586   29.5671  -75.6924 O.2       9 UNK        -0.5274 
     30 CA        -73.2214   27.3303  -75.4543 C.3       8 UNK         0.0270 
     31 CB        -73.6913   27.0536  -74.0198 C.3       8 UNK        -0.1976 
     32 N         -74.1619   26.7114  -76.3895 N.am      8 UNK        -0.4313 
     33 C         -74.0248   26.6765  -77.7214 C.2       8 UNK         0.5041 
     34 O         -73.0789   27.1765  -78.3346 O.2       8 UNK        -0.5577 
     35 CA        -75.1224   25.9051  -78.4758 C.3       7 UNK         0.0284 
     36 CB        -74.9299   25.9003  -80.0074 C.3       7 UNK        -0.1958 
     37 N         -75.2708   24.5396  -77.9544 N.am      7 UNK        -0.4454 
     38 C         -74.3461   23.5669  -77.9414 C.2       7 UNK         0.5089 
     39 O         -73.2220   23.6696  -78.4355 O.2       7 UNK        -0.5125 
     40 CA        -74.7682   22.2486  -77.2662 C.3       6 UNK         0.0408 
     41 CB        -73.5898   21.2797  -77.0291 C.3       6 UNK        -0.1791 
     42 N         -75.5405   22.4562  -76.0359 N.am      6 UNK        -0.4762 
     43 C         -75.1291   23.0038  -74.8788 C.2       6 UNK         0.5007 
     44 O         -73.9890   23.4312  -74.6973 O.2       6 UNK        -0.5032 
     45 CA        -76.1651   23.0712  -73.7317 C.3       5 UNK         0.0783 
     46 C46       -75.9234   24.2562  -72.7612 C.3       11 UNK        -0.0857 
     47 S47       -77.0544   24.1773  -71.3323 S.3       11 UNK        -0.2512 
     48 C48       -76.4394   25.5392  -70.2984 C.3       11 UNK         0.0225 
     49 N         -77.5247   23.0995  -74.2736 N.am      5 UNK        -0.4615 
     50 C         -78.3445   22.0504  -74.4025 C.2       4 UNK         0.5053 
     51 O         -78.0632   20.9120  -74.0287 O.2       4 UNK        -0.5105 
     52 CA        -79.6941   22.3040  -75.0993 C.3       4 UNK         0.0263 
     53 CB        -80.8335   22.3165  -74.0681 C.3       4 UNK        -0.1981 
     54 N         -79.7236   23.5487  -75.8785 N.am      4 UNK        -0.4224 
     55 C         -79.0181   23.7564  -77.0012 C.2       3 UNK         0.4895 
     56 O         -78.2817   22.9124  -77.5124 O.2       3 UNK        -0.5091 
     57 CA        -79.0916   25.1565  -77.6280 C.3       3 UNK         0.0250 
     58 CB        -80.3863   25.3211  -78.4386 C.3       3 UNK        -0.1996 
     59 N         -78.9877   26.2424  -76.6517 N.am      3 UNK        -0.4254 
     60 C         -77.9691   26.4759  -75.8144 C.2       2 UNK         0.5004 
     61 O         -76.9594   25.7725  -75.7578 O.2       2 UNK        -0.5226 
     62 CA        -78.0821   27.6911  -74.8750 C.3       2 UNK         0.0269 
     63 CB        -77.5452   28.9605  -75.5598 C.3       2 UNK        -0.1926 
     64 N         -79.4201   27.9074  -74.3019 N.am      2 UNK        -0.4687 
     65 C         -80.5640   28.2330  -74.9237 C.2       1 UNK         0.5165 
     66 O         -80.6345   28.4956  -76.1265 O.2       1 UNK        -0.5079 
     67 H67       -83.4186   24.6887  -76.4768 H         1 UNK         0.0900 
     68 H68       -84.0439   24.3317  -74.8655 H         1 UNK         0.0900 
     69 H69       -84.6175   25.7541  -75.7396 H         1 UNK         0.0900 
     70 H70       -83.7132   27.6387  -74.9595 H         1 UNK         0.2959 
     71 H71       -82.3344   29.1704  -74.2476 H         1 UNK         0.1079 
     72 H72       -81.0024   27.1620  -72.3428 H         1 UNK         0.0837 
     73 H73       -82.6463   27.6661  -72.1326 H         1 UNK         0.0837 
     74 H74       -80.7341   28.0809  -69.8602 H         1 UNK         0.0685 
     75 H75       -80.1347   29.6989  -69.5981 H         1 UNK         0.0685 
     76 H76       -78.9382   26.5315  -69.9090 H         1 UNK         0.1434 
     77 H77       -75.1443   27.5474  -71.6203 H         1 UNK         0.1329 
     78 H78       -78.3439   30.4008  -71.6590 H         1 UNK         0.1335 
     79 H79       -75.3508   29.6337  -73.3615 H         1 UNK         0.0680 
     80 H80       -76.3388   30.9452  -72.7650 H         1 UNK         0.0680 
     81 H81       -73.9748   32.9723  -71.3750 H         1 UNK         0.1032 
     82 H82       -74.5986   32.4868  -72.9149 H         1 UNK         0.1032 
     83 H83       -72.2685   33.2529  -73.0225 H         1 UNK         0.0461 
     84 H84       -69.8453   30.7052  -71.0889 H         1 UNK         0.3453 
     85 H85       -70.6519   30.2615  -72.5735 H         1 UNK         0.3453 
     86 H86       -73.0863   30.7613  -74.1508 H         1 UNK         0.2984 
     87 H87       -72.2282   31.1140  -76.7858 H         1 UNK         0.0554 
     88 H88       -70.2216   30.0843  -77.8467 H         1 UNK         0.0847 
     89 H89       -69.3046   30.3135  -76.3570 H         1 UNK         0.0847 
     90 H90       -69.8804   31.7030  -77.2676 H         1 UNK         0.0847 
     91 H91       -71.0501   28.6398  -75.7885 H         1 UNK         0.3141 
     92 H92       -72.2520   26.8482  -75.5961 H         1 UNK         0.0743 
     93 H93       -73.0858   27.5925  -73.2893 H         1 UNK         0.0784 
     94 H94       -73.6197   25.9932  -73.7802 H         1 UNK         0.0784 
     95 H95       -74.7280   27.3598  -73.8839 H         1 UNK         0.0784 
     96 H96       -74.9912   26.2821  -75.9917 H         1 UNK         0.3213 
     97 H97       -76.0582   26.4262  -78.2706 H         1 UNK         0.0855 
     98 H98       -73.9906   25.4304  -80.3002 H         1 UNK         0.0814 
     99 H99       -74.9171   26.9180  -80.3992 H         1 UNK         0.0814 
    100 H100      -75.7407   25.3704  -80.5071 H         1 UNK         0.0814 
    101 H101      -76.1339   24.3554  -77.4587 H         1 UNK         0.3105 
    102 H102      -75.4503   21.7626  -77.9654 H         1 UNK         0.0547 
    103 H103      -73.9245   20.3520  -76.5654 H         1 UNK         0.0837 
    104 H104      -72.8241   21.7189  -76.3891 H         1 UNK         0.0837 
    105 H105      -73.1086   21.0138  -77.9711 H         1 UNK         0.0837 
    106 H106      -76.5132   22.1829  -76.0952 H         1 UNK         0.3020 
    107 H107      -76.0230   22.1504  -73.1614 H         1 UNK         0.1245 
    108 H108      -76.0587   25.2121  -73.2690 H         1 UNK         0.0781 
    109 H109      -74.9001   24.2432  -72.3818 H         1 UNK         0.0781 
    110 H110      -75.3482   25.5412  -70.2978 H         1 UNK         0.0836 
    111 H111      -76.7389   25.3541  -69.2658 H         1 UNK         0.0836 
    112 H112      -77.8183   23.9915  -74.6482 H         1 UNK         0.3022 
    113 H113      -79.8661   21.4738  -75.7875 H         1 UNK         0.0747 
    114 H114      -81.8029   22.4505  -74.5484 H         1 UNK         0.0793 
    115 H115      -80.8719   21.3768  -73.5155 H         1 UNK         0.0793 
    116 H116      -80.7064   23.1184  -73.3394 H         1 UNK         0.0793 
    117 H117      -80.3036   24.3002  -75.5056 H         1 UNK         0.3047 
    118 H118      -78.2497   25.2533  -78.3156 H         1 UNK         0.0822 
    119 H119      -80.4018   26.2725  -78.9708 H         1 UNK         0.0807 
    120 H120      -81.2701   25.2810  -77.8012 H         1 UNK         0.0807 
    121 H121      -80.4843   24.5314  -79.1849 H         1 UNK         0.0807 
    122 H122      -79.7556   26.9076  -76.6226 H         1 UNK         0.2946 
    123 H123      -77.4309   27.4747  -74.0273 H         1 UNK         0.1144 
    124 H124      -77.5382   29.8083  -74.8755 H         1 UNK         0.0793 
    125 H125      -78.1336   29.2395  -76.4338 H         1 UNK         0.0793 
    126 H126      -76.5216   28.8085  -75.9009 H         1 UNK         0.0793 
    127 H127      -79.4841   27.7123  -73.3120 H         1 UNK         0.2896 
@<TRIPOS>BOND
     1    1    2 1    
     2    1   67 1    
     3    1   68 1    
     4    1   69 1    
     5    2    3 2    
     6    2    4 am   BACKBONE|DICT|INTERRES
     7    4    5 1    
     8    4   70 1    
     9    5    6 1    
    10    5   65 1    
    11    5   71 1    
    12    6    7 1    
    13    6   72 1    
    14    6   73 1    
    15    7    8 1    
    16    8    9 1    
    17    8   74 1    
    18    8   75 1    
    19    9   10 ar   
    20    9   14 ar   
    21   10   11 ar   
    22   10   76 1    
    23   11   12 ar   
    24   11   48 1    
    25   12   13 ar   
    26   12   77 1    
    27   13   14 ar   
    28   13   15 1    
    29   14   78 1    
    30   15   16 1    
    31   15   79 1    
    32   15   80 1    
    33   16   17 1    
    34   17   18 1    
    35   17   81 1    
    36   17   82 1    
    37   18   19 1    
    38   18   22 1    
    39   18   83 1    
    40   19   20 am   BACKBONE|DICT|INTERRES
    41   19   21 2    
    42   20   84 1    
    43   20   85 1    
    44   22   23 am   BACKBONE|DICT|INTERRES
    45   22   86 1    
    46   23   24 2    
    47   23   25 1    
    48   25   26 1    
    49   25   27 1    
    50   25   87 1    
    51   26   88 1    
    52   26   89 1    
    53   26   90 1    
    54   27   28 am   BACKBONE|DICT|INTERRES
    55   27   91 1    
    56   28   29 2    
    57   28   30 1    
    58   30   31 1    
    59   30   32 1    
    60   30   92 1    
    61   31   93 1    
    62   31   94 1    
    63   31   95 1    
    64   32   33 am   BACKBONE|DICT|INTERRES
    65   32   96 1    
    66   33   34 2    
    67   33   35 1    
    68   35   36 1    
    69   35   37 1    
    70   35   97 1    
    71   36   98 1    
    72   36   99 1    
    73   36  100 1    
    74   37   38 am   BACKBONE|DICT|INTERRES
    75   37  101 1    
    76   38   39 2    
    77   38   40 1    
    78   40   41 1    
    79   40   42 1    
    80   40  102 1    
    81   41  103 1    
    82   41  104 1    
    83   41  105 1    
    84   42   43 am   BACKBONE|DICT|INTERRES
    85   42  106 1    
    86   43   44 2    
    87   43   45 1    
    88   45   46 1    
    89   45   49 1    
    90   45  107 1    
    91   46   47 1    
    92   46  108 1    
    93   46  109 1    
    94   47   48 1    
    95   48  110 1    
    96   48  111 1    
    97   49   50 am   BACKBONE|DICT|INTERRES
    98   49  112 1    
    99   50   51 2    
   100   50   52 1    
   101   52   53 1    
   102   52   54 1    
   103   52  113 1    
   104   53  114 1    
   105   53  115 1    
   106   53  116 1    
   107   54   55 am   BACKBONE|DICT|INTERRES
   108   54  117 1    
   109   55   56 2    
   110   55   57 1    
   111   57   58 1    
   112   57   59 1    
   113   57  118 1    
   114   58  119 1    
   115   58  120 1    
   116   58  121 1    
   117   59   60 am   BACKBONE|DICT|INTERRES
   118   59  122 1    
   119   60   61 2    
   120   60   62 1    
   121   62   63 1    
   122   62   64 1    
   123   62  123 1    
   124   63  124 1    
   125   63  125 1    
   126   63  126 1    
   127   64   65 am   BACKBONE|DICT|INTERRES
   128   64  127 1    
   129   65   66 2    
@<TRIPOS>SUBSTRUCTURE
     1 UNK         1 GROUP             0       ****    0 ROOT    
