@<TRIPOS>MOLECULE
3R135
127   129    1
SMALL
USER_CHARGES


@<TRIPOS>ATOM
      1 CA        -82.8933   27.2684  -70.5016 C.3       0 UNK        -0.1998 
      2 C         -82.2982   27.1178  -71.8927 C.2       0 UNK         0.4909 
      3 O         -81.3217   26.3883  -72.0581 O.2       0 UNK        -0.5240 
      4 N         -82.8876   27.7927  -72.8898 N.am      1 UNK        -0.4739 
      5 CA        -82.4989   27.8729  -74.3115 C.3       1 UNK         0.0864 
      6 C6        -81.0770   28.4451  -74.5609 C.3       11 UNK        -0.0881 
      7 S7        -80.7997   30.0708  -73.7823 S.3       11 UNK        -0.2682 
      8 C8        -79.0019   30.2772  -74.0472 C.3       11 UNK         0.0289 
      9 C9        -78.0786   29.5155  -73.0904 C.ar      11 UNK        -0.0687 
     10 C10       -78.5387   28.5522  -72.1819 C.ar      11 UNK        -0.0823 
     11 C11       -77.6522   27.8764  -71.3398 C.ar      11 UNK        -0.0830 
     12 C12       -76.2921   28.1878  -71.3830 C.ar      11 UNK        -0.1021 
     13 C13       -75.8129   29.1409  -72.2836 C.ar      11 UNK        -0.0753 
     14 C14       -76.7082   29.7941  -73.1361 C.ar      11 UNK        -0.0933 
     15 C15       -74.3241   29.4333  -72.3585 C.3       11 UNK         0.0166 
     16 S16       -73.9319   31.1213  -71.7986 S.3       11 UNK        -0.2615 
     17 C17       -72.1105   31.0392  -71.6842 C.3       11 UNK        -0.0865 
     18 CA        -71.3815   31.5244  -72.9651 C.3       10 UNK         0.0862 
     19 C         -69.8408   31.5348  -72.7348 C.2       10 UNK         0.5551 
     20 N         -69.0711   30.6287  -73.3287 N.am      10 UNK        -0.7319 
     21 O         -69.3388   32.3825  -72.0011 O.2       10 UNK        -0.5018 
     22 N         -71.8046   30.7569  -74.1439 N.am      10 UNK        -0.4509 
     23 C         -71.5588   31.0775  -75.4186 C.2       10 UNK         0.4899 
     24 O         -71.0584   32.1477  -75.7678 O.2       10 UNK        -0.4839 
     25 CA        -71.9338   30.0224  -76.4822 C.3       9 UNK         0.0222 
     26 CB        -70.9445   30.0192  -77.6660 C.3       9 UNK        -0.1966 
     27 N         -72.1088   28.6542  -75.9657 N.am      9 UNK        -0.4218 
     28 C         -71.2060   27.9022  -75.3093 C.2       9 UNK         0.5020 
     29 O         -70.0928   28.3110  -74.9737 O.2       9 UNK        -0.5274 
     30 CA        -71.6105   26.4635  -74.9290 C.3       8 UNK         0.0270 
     31 CB        -71.9769   26.3835  -73.4385 C.3       8 UNK        -0.1976 
     32 N         -72.7190   25.9357  -75.7295 N.am      8 UNK        -0.4313 
     33 C         -72.6260   25.6346  -77.0341 C.2       8 UNK         0.5041 
     34 O         -71.5652   25.6608  -77.6598 O.2       8 UNK        -0.5577 
     35 CA        -73.9182   25.2655  -77.7891 C.3       7 UNK         0.0284 
     36 CB        -73.9729   23.7470  -78.0277 C.3       7 UNK        -0.1958 
     37 N         -75.1672   25.7013  -77.1524 N.am      7 UNK        -0.4454 
     38 C         -75.4876   26.9582  -76.8081 C.2       7 UNK         0.5089 
     39 O         -74.7582   27.9306  -77.0069 O.2       7 UNK        -0.5125 
     40 CA        -76.8163   27.1591  -76.0575 C.3       6 UNK         0.0408 
     41 CB        -77.9609   27.4055  -77.0501 C.3       6 UNK        -0.1791 
     42 N         -77.1755   26.0502  -75.1673 N.am      6 UNK        -0.4762 
     43 C         -76.4235   25.5841  -74.1564 C.2       6 UNK         0.5007 
     44 O         -75.2987   26.0074  -73.8852 O.2       6 UNK        -0.5032 
     45 CA        -76.9962   24.3861  -73.3782 C.3       5 UNK         0.0783 
     46 C46       -78.1272   24.7899  -72.3937 C.3       11 UNK        -0.0857 
     47 S47       -77.4737   25.1623  -70.7304 S.3       11 UNK        -0.2512 
     48 C48       -78.1658   26.8122  -70.3804 C.3       11 UNK         0.0225 
     49 N         -77.4316   23.3550  -74.3219 N.am      5 UNK        -0.4615 
     50 C         -76.6164   22.4407  -74.8658 C.2       4 UNK         0.5053 
     51 O         -75.4287   22.3198  -74.5664 O.2       4 UNK        -0.5105 
     52 CA        -77.2148   21.4963  -75.9246 C.3       4 UNK         0.0263 
     53 CB        -77.6521   20.1732  -75.2757 C.3       4 UNK        -0.1981 
     54 N         -78.3461   22.0700  -76.6571 N.am      4 UNK        -0.4224 
     55 C         -78.2625   23.1142  -77.4932 C.2       3 UNK         0.4895 
     56 O         -77.2160   23.7052  -77.7527 O.2       3 UNK        -0.5091 
     57 CA        -79.5824   23.6202  -78.0976 C.3       3 UNK         0.0250 
     58 CB        -79.9426   22.8163  -79.3571 C.3       3 UNK        -0.1996 
     59 N         -80.7126   23.6042  -77.1605 N.am      3 UNK        -0.4254 
     60 C         -80.7362   24.2383  -75.9802 C.2       2 UNK         0.5004 
     61 O         -79.7701   24.8414  -75.5025 O.2       2 UNK        -0.5226 
     62 CA        -82.0415   24.1559  -75.1758 C.3       2 UNK         0.0269 
     63 CB        -81.9530   23.0355  -74.1276 C.3       2 UNK        -0.1926 
     64 N         -82.2704   25.4269  -74.4949 N.am      2 UNK        -0.4687 
     65 C         -82.6627   26.5543  -75.0973 C.2       1 UNK         0.5165 
     66 O         -83.1116   26.5873  -76.2444 O.2       1 UNK        -0.5079 
     67 H67       -83.2156   26.2979  -70.1252 H         1 UNK         0.0900 
     68 H68       -83.7524   27.9388  -70.4944 H         1 UNK         0.0900 
     69 H69       -82.1451   27.6680  -69.8176 H         1 UNK         0.0900 
     70 H70       -83.7026   28.3452  -72.6622 H         1 UNK         0.2959 
     71 H71       -83.2081   28.5721  -74.7581 H         1 UNK         0.1079 
     72 H72       -80.9113   28.5709  -75.6325 H         1 UNK         0.0837 
     73 H73       -80.3143   27.7411  -74.2231 H         1 UNK         0.0837 
     74 H74       -78.7806   31.3421  -73.9621 H         1 UNK         0.0685 
     75 H75       -78.7599   29.9956  -75.0731 H         1 UNK         0.0685 
     76 H76       -79.5885   28.3137  -72.1216 H         1 UNK         0.1434 
     77 H77       -75.6052   27.6657  -70.7309 H         1 UNK         0.1329 
     78 H78       -76.3323   30.5273  -73.8367 H         1 UNK         0.1335 
     79 H79       -73.7684   28.7159  -71.7529 H         1 UNK         0.0680 
     80 H80       -73.9949   29.2960  -73.3884 H         1 UNK         0.0680 
     81 H81       -71.8036   30.0235  -71.4271 H         1 UNK         0.1032 
     82 H82       -71.8172   31.6576  -70.8334 H         1 UNK         0.1032 
     83 H83       -71.6726   32.5622  -73.1388 H         1 UNK         0.0461 
     84 H84       -69.4730   29.9135  -73.9263 H         1 UNK         0.3453 
     85 H85       -68.0761   30.6485  -73.1720 H         1 UNK         0.3453 
     86 H86       -72.2056   29.8519  -73.9600 H         1 UNK         0.2984 
     87 H87       -72.9096   30.3206  -76.8680 H         1 UNK         0.0554 
     88 H88       -70.9117   30.9929  -78.1563 H         1 UNK         0.0847 
     89 H89       -71.2333   29.2886  -78.4216 H         1 UNK         0.0847 
     90 H90       -69.9300   29.7835  -77.3425 H         1 UNK         0.0847 
     91 H91       -73.0054   28.2318  -76.1963 H         1 UNK         0.3141 
     92 H92       -70.7384   25.8283  -75.0980 H         1 UNK         0.0743 
     93 H93       -72.8616   26.9762  -73.2089 H         1 UNK         0.0784 
     94 H94       -72.1783   25.3559  -73.1352 H         1 UNK         0.0784 
     95 H95       -71.1628   26.7523  -72.8127 H         1 UNK         0.0784 
     96 H96       -73.6260   25.8835  -75.2768 H         1 UNK         0.3213 
     97 H97       -73.8652   25.7616  -78.7602 H         1 UNK         0.0855 
     98 H98       -74.1388   23.1995  -77.0989 H         1 UNK         0.0814 
     99 H99       -73.0413   23.3809  -78.4617 H         1 UNK         0.0814 
    100 H100      -74.7704   23.4830  -78.7218 H         1 UNK         0.0814 
    101 H101      -75.8722   24.9821  -77.0173 H         1 UNK         0.3105 
    102 H102      -76.7081   28.0475  -75.4337 H         1 UNK         0.0547 
    103 H103      -77.7567   28.2773  -77.6729 H         1 UNK         0.0837 
    104 H104      -78.1037   26.5541  -77.7155 H         1 UNK         0.0837 
    105 H105      -78.9025   27.5870  -76.5338 H         1 UNK         0.0837 
    106 H106      -78.0866   25.6224  -75.3233 H         1 UNK         0.3020 
    107 H107      -76.1719   23.9686  -72.7945 H         1 UNK         0.1245 
    108 H108      -78.7275   25.6191  -72.7742 H         1 UNK         0.0781 
    109 H109      -78.8294   23.9647  -72.2662 H         1 UNK         0.0781 
    110 H110      -79.2545   26.7520  -70.4033 H         1 UNK         0.0836 
    111 H111      -77.8985   27.0965  -69.3619 H         1 UNK         0.0836 
    112 H112      -78.3760   23.4449  -74.6747 H         1 UNK         0.3022 
    113 H113      -76.4259   21.2788  -76.6482 H         1 UNK         0.0747 
    114 H114      -77.9977   19.4589  -76.0231 H         1 UNK         0.0793 
    115 H115      -76.8214   19.7062  -74.7444 H         1 UNK         0.0793 
    116 H116      -78.4567   20.3230  -74.5545 H         1 UNK         0.0793 
    117 H117      -79.2523   21.6537  -76.5001 H         1 UNK         0.3047 
    118 H118      -79.4251   24.6587  -78.3943 H         1 UNK         0.0822 
    119 H119      -80.1569   21.7723  -79.1252 H         1 UNK         0.0807 
    120 H120      -79.1214   22.8286  -80.0754 H         1 UNK         0.0807 
    121 H121      -80.8146   23.2351  -79.8598 H         1 UNK         0.0807 
    122 H122      -81.5437   23.1200  -77.4691 H         1 UNK         0.2946 
    123 H123      -82.8772   23.9560  -75.8504 H         1 UNK         0.1144 
    124 H124      -82.8728   22.9646  -73.5468 H         1 UNK         0.0793 
    125 H125      -81.1304   23.2001  -73.4299 H         1 UNK         0.0793 
    126 H126      -81.7930   22.0659  -74.6008 H         1 UNK         0.0793 
    127 H127      -81.8576   25.5327  -73.5701 H         1 UNK         0.2896 
@<TRIPOS>BOND
     1    1    2 1    
     2    1   67 1    
     3    1   68 1    
     4    1   69 1    
     5    2    3 2    
     6    2    4 am   BACKBONE|DICT|INTERRES
     7    4    5 1    
     8    4   70 1    
     9    5    6 1    
    10    5   65 1    
    11    5   71 1    
    12    6    7 1    
    13    6   72 1    
    14    6   73 1    
    15    7    8 1    
    16    8    9 1    
    17    8   74 1    
    18    8   75 1    
    19    9   10 ar   
    20    9   14 ar   
    21   10   11 ar   
    22   10   76 1    
    23   11   12 ar   
    24   11   48 1    
    25   12   13 ar   
    26   12   77 1    
    27   13   14 ar   
    28   13   15 1    
    29   14   78 1    
    30   15   16 1    
    31   15   79 1    
    32   15   80 1    
    33   16   17 1    
    34   17   18 1    
    35   17   81 1    
    36   17   82 1    
    37   18   19 1    
    38   18   22 1    
    39   18   83 1    
    40   19   20 am   BACKBONE|DICT|INTERRES
    41   19   21 2    
    42   20   84 1    
    43   20   85 1    
    44   22   23 am   BACKBONE|DICT|INTERRES
    45   22   86 1    
    46   23   24 2    
    47   23   25 1    
    48   25   26 1    
    49   25   27 1    
    50   25   87 1    
    51   26   88 1    
    52   26   89 1    
    53   26   90 1    
    54   27   28 am   BACKBONE|DICT|INTERRES
    55   27   91 1    
    56   28   29 2    
    57   28   30 1    
    58   30   31 1    
    59   30   32 1    
    60   30   92 1    
    61   31   93 1    
    62   31   94 1    
    63   31   95 1    
    64   32   33 am   BACKBONE|DICT|INTERRES
    65   32   96 1    
    66   33   34 2    
    67   33   35 1    
    68   35   36 1    
    69   35   37 1    
    70   35   97 1    
    71   36   98 1    
    72   36   99 1    
    73   36  100 1    
    74   37   38 am   BACKBONE|DICT|INTERRES
    75   37  101 1    
    76   38   39 2    
    77   38   40 1    
    78   40   41 1    
    79   40   42 1    
    80   40  102 1    
    81   41  103 1    
    82   41  104 1    
    83   41  105 1    
    84   42   43 am   BACKBONE|DICT|INTERRES
    85   42  106 1    
    86   43   44 2    
    87   43   45 1    
    88   45   46 1    
    89   45   49 1    
    90   45  107 1    
    91   46   47 1    
    92   46  108 1    
    93   46  109 1    
    94   47   48 1    
    95   48  110 1    
    96   48  111 1    
    97   49   50 am   BACKBONE|DICT|INTERRES
    98   49  112 1    
    99   50   51 2    
   100   50   52 1    
   101   52   53 1    
   102   52   54 1    
   103   52  113 1    
   104   53  114 1    
   105   53  115 1    
   106   53  116 1    
   107   54   55 am   BACKBONE|DICT|INTERRES
   108   54  117 1    
   109   55   56 2    
   110   55   57 1    
   111   57   58 1    
   112   57   59 1    
   113   57  118 1    
   114   58  119 1    
   115   58  120 1    
   116   58  121 1    
   117   59   60 am   BACKBONE|DICT|INTERRES
   118   59  122 1    
   119   60   61 2    
   120   60   62 1    
   121   62   63 1    
   122   62   64 1    
   123   62  123 1    
   124   63  124 1    
   125   63  125 1    
   126   63  126 1    
   127   64   65 am   BACKBONE|DICT|INTERRES
   128   64  127 1    
   129   65   66 2    
@<TRIPOS>SUBSTRUCTURE
     1 UNK         1 GROUP             0       ****    0 ROOT    
