@<TRIPOS>MOLECULE
3R135
127   129    1
SMALL
USER_CHARGES


@<TRIPOS>ATOM
      1 CA        -84.9357   25.5075  -71.9904 C.3       0 UNK        -0.1998 
      2 C         -83.7339   25.7623  -72.8866 C.2       0 UNK         0.4909 
      3 O         -82.9475   24.8469  -73.1287 O.2       0 UNK        -0.5240 
      4 N         -83.6023   26.9919  -73.4075 N.am      1 UNK        -0.4739 
      5 CA        -82.4820   27.4976  -74.2269 C.3       1 UNK         0.0864 
      6 C6        -81.1225   27.4705  -73.4696 C.3       11 UNK        -0.0881 
      7 S7        -81.1677   28.4851  -71.9545 S.3       11 UNK        -0.2682 
      8 C8        -79.8700   29.7248  -72.2999 C.3       11 UNK         0.0289 
      9 C9        -78.4299   29.2871  -72.0135 C.ar      11 UNK        -0.0687 
     10 C10       -78.1135   28.1605  -71.2403 C.ar      11 UNK        -0.0823 
     11 C11       -76.7847   27.8557  -70.9263 C.ar      11 UNK        -0.0830 
     12 C12       -75.7609   28.6847  -71.3944 C.ar      11 UNK        -0.1021 
     13 C13       -76.0576   29.8091  -72.1689 C.ar      11 UNK        -0.0753 
     14 C14       -77.3895   30.0968  -72.4811 C.ar      11 UNK        -0.0933 
     15 C15       -74.9495   30.7543  -72.6077 C.3       11 UNK         0.0166 
     16 S16       -74.1807   30.2420  -74.1748 S.3       11 UNK        -0.2615 
     17 C17       -73.1153   31.6912  -74.5060 C.3       11 UNK        -0.0865 
     18 CA        -71.6108   31.4755  -74.1968 C.3       10 UNK         0.0862 
     19 C         -71.3314   31.2886  -72.6748 C.2       10 UNK         0.5551 
     20 N         -70.8040   30.1564  -72.2224 N.am      10 UNK        -0.7319 
     21 O         -71.5891   32.1996  -71.8918 O.2       10 UNK        -0.5018 
     22 N         -71.0155   30.4511  -75.0670 N.am      10 UNK        -0.4509 
     23 C         -69.7053   30.3531  -75.3289 C.2       10 UNK         0.4899 
     24 O         -68.8789   31.1937  -74.9692 O.2       10 UNK        -0.4839 
     25 CA        -69.2322   29.1179  -76.1254 C.3       9 UNK         0.0222 
     26 CB        -67.7749   28.7349  -75.7913 C.3       9 UNK        -0.1966 
     27 N         -70.0990   27.9371  -76.0068 N.am      9 UNK        -0.4218 
     28 C         -70.4837   27.2989  -74.8922 C.2       9 UNK         0.5020 
     29 O         -70.2082   27.6837  -73.7537 O.2       9 UNK        -0.5274 
     30 CA        -71.3269   26.0239  -75.0985 C.3       8 UNK         0.0270 
     31 CB        -71.7764   25.3881  -73.7695 C.3       8 UNK        -0.1976 
     32 N         -72.4985   26.2480  -75.9567 N.am      8 UNK        -0.4313 
     33 C         -72.4643   26.3277  -77.2973 C.2       8 UNK         0.5041 
     34 O         -71.4104   26.3004  -77.9360 O.2       8 UNK        -0.5577 
     35 CA        -73.7860   26.4706  -78.0733 C.3       7 UNK         0.0284 
     36 CB        -73.9878   25.2788  -79.0256 C.3       7 UNK        -0.1958 
     37 N         -74.9454   26.5688  -77.1885 N.am      7 UNK        -0.4454 
     38 C         -75.5672   27.7115  -76.8658 C.2       7 UNK         0.5089 
     39 O         -75.2686   28.8059  -77.3447 O.2       7 UNK        -0.5125 
     40 CA        -76.7218   27.6332  -75.8449 C.3       6 UNK         0.0408 
     41 CB        -78.0700   27.7602  -76.5677 C.3       6 UNK        -0.1791 
     42 N         -76.7308   26.4169  -75.0236 N.am      6 UNK        -0.4762 
     43 C         -75.7531   26.0673  -74.1715 C.2       6 UNK         0.5007 
     44 O         -74.7401   26.7410  -73.9962 O.2       6 UNK        -0.5032 
     45 CA        -75.8609   24.6822  -73.4942 C.3       5 UNK         0.0783 
     46 C46       -76.5581   24.7611  -72.1142 C.3       11 UNK        -0.0857 
     47 S47       -75.4390   25.4010  -70.8243 S.3       11 UNK        -0.2512 
     48 C48       -76.4656   26.6723  -70.0195 C.3       11 UNK         0.0225 
     49 N         -76.4913   23.6762  -74.3560 N.am      5 UNK        -0.4615 
     50 C         -76.0763   23.3354  -75.5845 C.2       4 UNK         0.5053 
     51 O         -75.0525   23.7831  -76.0998 O.2       4 UNK        -0.5105 
     52 CA        -76.9593   22.3721  -76.4003 C.3       4 UNK         0.0263 
     53 CB        -76.2934   20.9897  -76.4933 C.3       4 UNK        -0.1981 
     54 N         -78.3359   22.2097  -75.9129 N.am      4 UNK        -0.4224 
     55 C         -79.2484   23.1835  -75.7811 C.2       3 UNK         0.4895 
     56 O         -79.0133   24.3796  -75.9735 O.2       3 UNK        -0.5091 
     57 CA        -80.6312   22.7329  -75.2782 C.3       3 UNK         0.0250 
     58 CB        -80.6142   22.5885  -73.7472 C.3       3 UNK        -0.1996 
     59 N         -81.6969   23.6637  -75.6519 N.am      3 UNK        -0.4254 
     60 C         -82.1072   23.9084  -76.9069 C.2       2 UNK         0.5004 
     61 O         -81.6935   23.2946  -77.8920 O.2       2 UNK        -0.5226 
     62 CA        -83.1678   25.0106  -77.1070 C.3       2 UNK         0.0269 
     63 CB        -84.5472   24.3901  -77.3836 C.3       2 UNK        -0.1926 
     64 N         -83.2736   25.9096  -75.9556 N.am      2 UNK        -0.4687 
     65 C         -82.3622   26.8337  -75.6209 C.2       1 UNK         0.5165 
     66 O         -81.4468   27.1681  -76.3726 O.2       1 UNK        -0.5079 
     67 H67       -84.6028   25.1993  -70.9997 H         1 UNK         0.0900 
     68 H68       -85.5519   24.7109  -72.4062 H         1 UNK         0.0900 
     69 H69       -85.5572   26.3957  -71.8782 H         1 UNK         0.0900 
     70 H70       -84.3033   27.6857  -73.1856 H         1 UNK         0.2959 
     71 H71       -82.7170   28.5420  -74.4386 H         1 UNK         0.1079 
     72 H72       -80.3159   27.8358  -74.1044 H         1 UNK         0.0837 
     73 H73       -80.8426   26.4511  -73.1996 H         1 UNK         0.0837 
     74 H74       -80.0786   30.6001  -71.6834 H         1 UNK         0.0685 
     75 H75       -79.9592   30.0563  -73.3357 H         1 UNK         0.0685 
     76 H76       -78.8988   27.5317  -70.8469 H         1 UNK         0.1434 
     77 H77       -74.7325   28.4615  -71.1443 H         1 UNK         0.1329 
     78 H78       -77.6196   30.9789  -73.0633 H         1 UNK         0.1335 
     79 H79       -75.3500   31.7637  -72.7135 H         1 UNK         0.0680 
     80 H80       -74.1846   30.8090  -71.8319 H         1 UNK         0.0680 
     81 H81       -73.2315   31.9498  -75.5596 H         1 UNK         0.1032 
     82 H82       -73.4890   32.5599  -73.9610 H         1 UNK         0.1032 
     83 H83       -71.1207   32.4168  -74.4539 H         1 UNK         0.0461 
     84 H84       -70.6245   30.0565  -71.2367 H         1 UNK         0.3453 
     85 H85       -70.5993   29.3859  -72.8517 H         1 UNK         0.3453 
     86 H86       -71.6330   29.7116  -75.3682 H         1 UNK         0.2984 
     87 H87       -69.2648   29.4095  -77.1760 H         1 UNK         0.0554 
     88 H88       -67.4432   27.8802  -76.3807 H         1 UNK         0.0847 
     89 H89       -67.6581   28.4809  -74.7370 H         1 UNK         0.0847 
     90 H90       -67.0903   29.5565  -76.0063 H         1 UNK         0.0847 
     91 H91       -70.4100   27.5211  -76.8833 H         1 UNK         0.3141 
     92 H92       -70.6777   25.2988  -75.5940 H         1 UNK         0.0743 
     93 H93       -70.9148   25.0979  -73.1670 H         1 UNK         0.0784 
     94 H94       -72.3694   26.0790  -73.1693 H         1 UNK         0.0784 
     95 H95       -72.3700   24.4897  -73.9385 H         1 UNK         0.0784 
     96 H96       -73.3850   26.3679  -75.4758 H         1 UNK         0.3213 
     97 H97       -73.7007   27.3727  -78.6827 H         1 UNK         0.0855 
     98 H98       -74.0177   24.3302  -78.4889 H         1 UNK         0.0814 
     99 H99       -73.1744   25.2153  -79.7496 H         1 UNK         0.0814 
    100 H100      -74.9151   25.3745  -79.5906 H         1 UNK         0.0814 
    101 H101      -75.2329   25.7053  -76.7384 H         1 UNK         0.3105 
    102 H102      -76.6146   28.4843  -75.1691 H         1 UNK         0.0547 
    103 H103      -78.1023   28.6558  -77.1895 H         1 UNK         0.0837 
    104 H104      -78.2658   26.9040  -77.2145 H         1 UNK         0.0837 
    105 H105      -78.8903   27.8354  -75.8579 H         1 UNK         0.0837 
    106 H106      -77.5056   25.7779  -75.1683 H         1 UNK         0.3020 
    107 H107      -74.8372   24.3338  -73.3393 H         1 UNK         0.1245 
    108 H108      -76.8649   23.7657  -71.7893 H         1 UNK         0.0781 
    109 H109      -77.4745   25.3522  -72.1665 H         1 UNK         0.0781 
    110 H110      -75.9360   27.0401  -69.1396 H         1 UNK         0.0836 
    111 H111      -77.3788   26.2047  -69.6480 H         1 UNK         0.0836 
    112 H112      -77.3476   23.2649  -74.0173 H         1 UNK         0.3022 
    113 H113      -77.0233   22.7874  -77.4082 H         1 UNK         0.0747 
    114 H114      -76.8430   20.3268  -77.1619 H         1 UNK         0.0793 
    115 H115      -75.2782   21.0694  -76.8853 H         1 UNK         0.0793 
    116 H116      -76.2282   20.5068  -75.5173 H         1 UNK         0.0793 
    117 H117      -78.6175   21.2629  -75.7009 H         1 UNK         0.3047 
    118 H118      -80.8644   21.7633  -75.7234 H         1 UNK         0.0822 
    119 H119      -79.8670   21.8630  -73.4231 H         1 UNK         0.0807 
    120 H120      -81.5787   22.2460  -73.3714 H         1 UNK         0.0807 
    121 H121      -80.3860   23.5363  -73.2570 H         1 UNK         0.0807 
    122 H122      -82.1013   24.2059  -74.8953 H         1 UNK         0.2946 
    123 H123      -82.8679   25.5950  -77.9800 H         1 UNK         0.1144 
    124 H124      -84.5126   23.7353  -78.2556 H         1 UNK         0.0793 
    125 H125      -85.2943   25.1576  -77.5867 H         1 UNK         0.0793 
    126 H126      -84.8977   23.7927  -76.5410 H         1 UNK         0.0793 
    127 H127      -83.9940   25.7013  -75.2792 H         1 UNK         0.2896 
@<TRIPOS>BOND
     1    1    2 1    
     2    1   67 1    
     3    1   68 1    
     4    1   69 1    
     5    2    3 2    
     6    2    4 am   BACKBONE|DICT|INTERRES
     7    4    5 1    
     8    4   70 1    
     9    5    6 1    
    10    5   65 1    
    11    5   71 1    
    12    6    7 1    
    13    6   72 1    
    14    6   73 1    
    15    7    8 1    
    16    8    9 1    
    17    8   74 1    
    18    8   75 1    
    19    9   10 ar   
    20    9   14 ar   
    21   10   11 ar   
    22   10   76 1    
    23   11   12 ar   
    24   11   48 1    
    25   12   13 ar   
    26   12   77 1    
    27   13   14 ar   
    28   13   15 1    
    29   14   78 1    
    30   15   16 1    
    31   15   79 1    
    32   15   80 1    
    33   16   17 1    
    34   17   18 1    
    35   17   81 1    
    36   17   82 1    
    37   18   19 1    
    38   18   22 1    
    39   18   83 1    
    40   19   20 am   BACKBONE|DICT|INTERRES
    41   19   21 2    
    42   20   84 1    
    43   20   85 1    
    44   22   23 am   BACKBONE|DICT|INTERRES
    45   22   86 1    
    46   23   24 2    
    47   23   25 1    
    48   25   26 1    
    49   25   27 1    
    50   25   87 1    
    51   26   88 1    
    52   26   89 1    
    53   26   90 1    
    54   27   28 am   BACKBONE|DICT|INTERRES
    55   27   91 1    
    56   28   29 2    
    57   28   30 1    
    58   30   31 1    
    59   30   32 1    
    60   30   92 1    
    61   31   93 1    
    62   31   94 1    
    63   31   95 1    
    64   32   33 am   BACKBONE|DICT|INTERRES
    65   32   96 1    
    66   33   34 2    
    67   33   35 1    
    68   35   36 1    
    69   35   37 1    
    70   35   97 1    
    71   36   98 1    
    72   36   99 1    
    73   36  100 1    
    74   37   38 am   BACKBONE|DICT|INTERRES
    75   37  101 1    
    76   38   39 2    
    77   38   40 1    
    78   40   41 1    
    79   40   42 1    
    80   40  102 1    
    81   41  103 1    
    82   41  104 1    
    83   41  105 1    
    84   42   43 am   BACKBONE|DICT|INTERRES
    85   42  106 1    
    86   43   44 2    
    87   43   45 1    
    88   45   46 1    
    89   45   49 1    
    90   45  107 1    
    91   46   47 1    
    92   46  108 1    
    93   46  109 1    
    94   47   48 1    
    95   48  110 1    
    96   48  111 1    
    97   49   50 am   BACKBONE|DICT|INTERRES
    98   49  112 1    
    99   50   51 2    
   100   50   52 1    
   101   52   53 1    
   102   52   54 1    
   103   52  113 1    
   104   53  114 1    
   105   53  115 1    
   106   53  116 1    
   107   54   55 am   BACKBONE|DICT|INTERRES
   108   54  117 1    
   109   55   56 2    
   110   55   57 1    
   111   57   58 1    
   112   57   59 1    
   113   57  118 1    
   114   58  119 1    
   115   58  120 1    
   116   58  121 1    
   117   59   60 am   BACKBONE|DICT|INTERRES
   118   59  122 1    
   119   60   61 2    
   120   60   62 1    
   121   62   63 1    
   122   62   64 1    
   123   62  123 1    
   124   63  124 1    
   125   63  125 1    
   126   63  126 1    
   127   64   65 am   BACKBONE|DICT|INTERRES
   128   64  127 1    
   129   65   66 2    
@<TRIPOS>SUBSTRUCTURE
     1 UNK         1 GROUP             0       ****    0 ROOT    
