@<TRIPOS>MOLECULE
3R135
127   129    1
SMALL
USER_CHARGES


@<TRIPOS>ATOM
      1 CA        -80.9265   31.5320  -75.4353 C.3       0 UNK        -0.1998 
      2 C         -79.9597   30.5761  -74.7545 C.2       0 UNK         0.4909 
      3 O         -78.7517   30.8136  -74.7760 O.2       0 UNK        -0.5240 
      4 N         -80.4794   29.4925  -74.1629 N.am      1 UNK        -0.4739 
      5 CA        -79.7387   28.4586  -73.4266 C.3       1 UNK         0.0864 
      6 C6        -80.6858   27.6554  -72.4905 C.3       11 UNK        -0.0881 
      7 S7        -81.2214   28.6469  -71.0550 S.3       11 UNK        -0.2682 
      8 C8        -80.3312   27.8349  -69.6788 C.3       11 UNK         0.0289 
      9 C9        -78.8374   27.6891  -69.9484 C.ar      11 UNK        -0.0687 
     10 C10       -78.2451   26.4230  -69.9972 C.ar      11 UNK        -0.0823 
     11 C11       -76.8842   26.2824  -70.2897 C.ar      11 UNK        -0.0830 
     12 C12       -76.1210   27.4255  -70.5540 C.ar      11 UNK        -0.1021 
     13 C13       -76.7027   28.6972  -70.5207 C.ar      11 UNK        -0.0753 
     14 C14       -78.0533   28.8210  -70.1786 C.ar      11 UNK        -0.0933 
     15 C15       -75.8657   29.9239  -70.8666 C.3       11 UNK         0.0166 
     16 S16       -76.7531   31.0933  -71.9507 S.3       11 UNK        -0.2615 
     17 C17       -75.3682   31.9856  -72.7218 C.3       11 UNK        -0.0865 
     18 CA        -75.1069   31.4848  -74.1739 C.3       10 UNK         0.0862 
     19 C         -75.4757   32.5527  -75.2345 C.2       10 UNK         0.5551 
     20 N         -76.7360   32.6201  -75.6360 N.am      10 UNK        -0.7319 
     21 O         -74.6372   33.3409  -75.6697 O.2       10 UNK        -0.5018 
     22 N         -73.7144   31.0583  -74.3407 N.am      10 UNK        -0.4509 
     23 C         -73.2755   29.7989  -74.2789 C.2       10 UNK         0.4899 
     24 O         -73.9903   28.8181  -74.0660 O.2       10 UNK        -0.4839 
     25 CA        -71.7620   29.6045  -74.4519 C.3       9 UNK         0.0222 
     26 CB        -71.1283   29.0923  -73.1474 C.3       9 UNK        -0.1966 
     27 N         -71.4762   28.6632  -75.5320 N.am      9 UNK        -0.4218 
     28 C         -71.6114   28.9310  -76.8385 C.2       9 UNK         0.5020 
     29 O         -71.9419   30.0324  -77.2806 O.2       9 UNK        -0.5274 
     30 CA        -71.3039   27.7890  -77.8258 C.3       8 UNK         0.0270 
     31 CB        -69.8868   27.9451  -78.4029 C.3       8 UNK        -0.1976 
     32 N         -71.4392   26.4536  -77.2337 N.am      8 UNK        -0.4313 
     33 C         -72.6130   25.8783  -76.9463 C.2       8 UNK         0.5041 
     34 O         -73.7067   26.3981  -77.1738 O.2       8 UNK        -0.5577 
     35 CA        -72.5519   24.5063  -76.2699 C.3       7 UNK         0.0284 
     36 CB        -72.2886   24.6508  -74.7595 C.3       7 UNK        -0.1958 
     37 N         -73.8290   23.8321  -76.4700 N.am      7 UNK        -0.4454 
     38 C         -74.0014   22.5150  -76.6213 C.2       7 UNK         0.5089 
     39 O         -73.0801   21.6960  -76.6340 O.2       7 UNK        -0.5125 
     40 CA        -75.4632   22.0509  -76.7502 C.3       6 UNK         0.0408 
     41 CB        -75.6258   20.5167  -76.7893 C.3       6 UNK        -0.1791 
     42 N         -76.2974   22.6559  -75.7073 N.am      6 UNK        -0.4762 
     43 C         -76.2039   22.4841  -74.3780 C.2       6 UNK         0.5007 
     44 O         -75.4517   21.6739  -73.8352 O.2       6 UNK        -0.5032 
     45 CA        -77.1197   23.3702  -73.5063 C.3       5 UNK         0.0783 
     46 C46       -76.4288   24.7046  -73.1255 C.3       11 UNK        -0.0857 
     47 S47       -75.2217   24.5484  -71.7707 S.3       11 UNK        -0.2512 
     48 C48       -76.2505   24.8923  -70.3010 C.3       11 UNK         0.0225 
     49 N         -78.4065   23.6386  -74.1499 N.am      5 UNK        -0.4615 
     50 C         -79.3495   22.7388  -74.4547 C.2       4 UNK         0.5053 
     51 O         -79.2815   21.5435  -74.1694 O.2       4 UNK        -0.5105 
     52 CA        -80.5708   23.2721  -75.2194 C.3       4 UNK         0.0263 
     53 CB        -81.6210   23.8234  -74.2407 C.3       4 UNK        -0.1981 
     54 N         -80.1863   24.3241  -76.1652 N.am      4 UNK        -0.4224 
     55 C         -79.7697   24.1023  -77.4193 C.2       3 UNK         0.4895 
     56 O         -79.7371   22.9880  -77.9422 O.2       3 UNK        -0.5091 
     57 CA        -79.3108   25.3240  -78.2379 C.3       3 UNK         0.0250 
     58 CB        -80.4938   25.9225  -79.0159 C.3       3 UNK        -0.1996 
     59 N         -78.6765   26.3772  -77.4391 N.am      3 UNK        -0.4254 
     60 C         -77.4907   26.2591  -76.8250 C.2       2 UNK         0.5004 
     61 O         -76.8068   25.2354  -76.8470 O.2       2 UNK        -0.5226 
     62 CA        -77.0089   27.4749  -76.0117 C.3       2 UNK         0.0269 
     63 CB        -76.4069   28.5375  -76.9465 C.3       2 UNK        -0.1926 
     64 N         -78.0186   28.1170  -75.1570 N.am      2 UNK        -0.4687 
     65 C         -78.9290   27.5347  -74.3645 C.2       1 UNK         0.5165 
     66 O         -79.1496   26.3241  -74.3629 O.2       1 UNK        -0.5079 
     67 H67       -81.9611   31.2028  -75.3414 H         1 UNK         0.0900 
     68 H68       -80.8441   32.5241  -74.9923 H         1 UNK         0.0900 
     69 H69       -80.6894   31.6116  -76.4959 H         1 UNK         0.0900 
     70 H70       -81.4797   29.3571  -74.1929 H         1 UNK         0.2959 
     71 H71       -78.9943   28.9601  -72.8048 H         1 UNK         0.1079 
     72 H72       -81.5680   27.3152  -73.0354 H         1 UNK         0.0837 
     73 H73       -80.2086   26.7474  -72.1182 H         1 UNK         0.0837 
     74 H74       -80.7880   26.8613  -69.4945 H         1 UNK         0.0685 
     75 H75       -80.4751   28.4197  -68.7694 H         1 UNK         0.0685 
     76 H76       -78.8471   25.5443  -69.8090 H         1 UNK         0.1434 
     77 H77       -75.0726   27.3214  -70.7986 H         1 UNK         0.1329 
     78 H78       -78.5134   29.7989  -70.1408 H         1 UNK         0.1335 
     79 H79       -74.9469   29.6125  -71.3668 H         1 UNK         0.0680 
     80 H80       -75.5705   30.4331  -69.9485 H         1 UNK         0.0680 
     81 H81       -74.4819   31.8764  -72.0945 H         1 UNK         0.1032 
     82 H82       -75.5992   33.0525  -72.6887 H         1 UNK         0.1032 
     83 H83       -75.7444   30.6236  -74.3862 H         1 UNK         0.0461 
     84 H84       -77.0010   33.3156  -76.3144 H         1 UNK         0.3453 
     85 H85       -77.4371   31.9792  -75.2673 H         1 UNK         0.3453 
     86 H86       -73.0731   31.7986  -74.5924 H         1 UNK         0.2984 
     87 H87       -71.2992   30.5626  -74.6995 H         1 UNK         0.0554 
     88 H88       -71.3137   29.7864  -72.3266 H         1 UNK         0.0847 
     89 H89       -70.0475   28.9874  -73.2438 H         1 UNK         0.0847 
     90 H90       -71.5356   28.1243  -72.8515 H         1 UNK         0.0847 
     91 H91       -71.2379   27.7214  -75.2620 H         1 UNK         0.3141 
     92 H92       -72.0165   27.8719  -78.6496 H         1 UNK         0.0743 
     93 H93       -69.7650   28.9195  -78.8785 H         1 UNK         0.0784 
     94 H94       -69.1226   27.8634  -77.6289 H         1 UNK         0.0784 
     95 H95       -69.6811   27.1896  -79.1614 H         1 UNK         0.0784 
     96 H96       -70.5835   25.9572  -77.0268 H         1 UNK         0.3213 
     97 H97       -71.7501   23.9267  -76.7329 H         1 UNK         0.0855 
     98 H98       -73.0525   25.2617  -74.2753 H         1 UNK         0.0814 
     99 H99       -71.3230   25.1198  -74.5682 H         1 UNK         0.0814 
    100 H100      -72.2792   23.6796  -74.2642 H         1 UNK         0.0814 
    101 H101      -74.6276   24.4546  -76.5567 H         1 UNK         0.3105 
    102 H102      -75.8304   22.4448  -77.6991 H         1 UNK         0.0547 
    103 H103      -76.6743   20.2319  -76.8750 H         1 UNK         0.0837 
    104 H104      -75.2194   20.0384  -75.8980 H         1 UNK         0.0837 
    105 H105      -75.1030   20.0941  -77.6480 H         1 UNK         0.0837 
    106 H106      -76.8890   23.4151  -76.0325 H         1 UNK         0.3020 
    107 H107      -77.3371   22.8114  -72.5933 H         1 UNK         0.1245 
    108 H108      -77.1720   25.4420  -72.8229 H         1 UNK         0.0781 
    109 H109      -75.9250   25.1452  -73.9878 H         1 UNK         0.0781 
    110 H110      -75.6288   24.7892  -69.4108 H         1 UNK         0.0836 
    111 H111      -77.0159   24.1181  -70.2289 H         1 UNK         0.0836 
    112 H112      -78.5986   24.6148  -74.3643 H         1 UNK         0.3022 
    113 H113      -81.0191   22.4383  -75.7643 H         1 UNK         0.0747 
    114 H114      -82.5081   24.1737  -74.7684 H         1 UNK         0.0793 
    115 H115      -81.9436   23.0512  -73.5411 H         1 UNK         0.0793 
    116 H116      -81.2318   24.6545  -73.6514 H         1 UNK         0.0793 
    117 H117      -80.1046   25.2608  -75.7856 H         1 UNK         0.3047 
    118 H118      -78.5732   24.9693  -78.9612 H         1 UNK         0.0822 
    119 H119      -80.1692   26.7280  -79.6749 H         1 UNK         0.0807 
    120 H120      -81.2578   26.3211  -78.3472 H         1 UNK         0.0807 
    121 H121      -80.9709   25.1671  -79.6422 H         1 UNK         0.0807 
    122 H122      -79.1758   27.2499  -77.3474 H         1 UNK         0.2946 
    123 H123      -76.2112   27.1220  -75.3550 H         1 UNK         0.1144 
    124 H124      -75.6916   28.0938  -77.6400 H         1 UNK         0.0793 
    125 H125      -75.8699   29.3004  -76.3838 H         1 UNK         0.0793 
    126 H126      -77.1728   29.0352  -77.5420 H         1 UNK         0.0793 
    127 H127      -77.9771   29.1318  -75.1014 H         1 UNK         0.2896 
@<TRIPOS>BOND
     1    1    2 1    
     2    1   67 1    
     3    1   68 1    
     4    1   69 1    
     5    2    3 2    
     6    2    4 am   BACKBONE|DICT|INTERRES
     7    4    5 1    
     8    4   70 1    
     9    5    6 1    
    10    5   65 1    
    11    5   71 1    
    12    6    7 1    
    13    6   72 1    
    14    6   73 1    
    15    7    8 1    
    16    8    9 1    
    17    8   74 1    
    18    8   75 1    
    19    9   10 ar   
    20    9   14 ar   
    21   10   11 ar   
    22   10   76 1    
    23   11   12 ar   
    24   11   48 1    
    25   12   13 ar   
    26   12   77 1    
    27   13   14 ar   
    28   13   15 1    
    29   14   78 1    
    30   15   16 1    
    31   15   79 1    
    32   15   80 1    
    33   16   17 1    
    34   17   18 1    
    35   17   81 1    
    36   17   82 1    
    37   18   19 1    
    38   18   22 1    
    39   18   83 1    
    40   19   20 am   BACKBONE|DICT|INTERRES
    41   19   21 2    
    42   20   84 1    
    43   20   85 1    
    44   22   23 am   BACKBONE|DICT|INTERRES
    45   22   86 1    
    46   23   24 2    
    47   23   25 1    
    48   25   26 1    
    49   25   27 1    
    50   25   87 1    
    51   26   88 1    
    52   26   89 1    
    53   26   90 1    
    54   27   28 am   BACKBONE|DICT|INTERRES
    55   27   91 1    
    56   28   29 2    
    57   28   30 1    
    58   30   31 1    
    59   30   32 1    
    60   30   92 1    
    61   31   93 1    
    62   31   94 1    
    63   31   95 1    
    64   32   33 am   BACKBONE|DICT|INTERRES
    65   32   96 1    
    66   33   34 2    
    67   33   35 1    
    68   35   36 1    
    69   35   37 1    
    70   35   97 1    
    71   36   98 1    
    72   36   99 1    
    73   36  100 1    
    74   37   38 am   BACKBONE|DICT|INTERRES
    75   37  101 1    
    76   38   39 2    
    77   38   40 1    
    78   40   41 1    
    79   40   42 1    
    80   40  102 1    
    81   41  103 1    
    82   41  104 1    
    83   41  105 1    
    84   42   43 am   BACKBONE|DICT|INTERRES
    85   42  106 1    
    86   43   44 2    
    87   43   45 1    
    88   45   46 1    
    89   45   49 1    
    90   45  107 1    
    91   46   47 1    
    92   46  108 1    
    93   46  109 1    
    94   47   48 1    
    95   48  110 1    
    96   48  111 1    
    97   49   50 am   BACKBONE|DICT|INTERRES
    98   49  112 1    
    99   50   51 2    
   100   50   52 1    
   101   52   53 1    
   102   52   54 1    
   103   52  113 1    
   104   53  114 1    
   105   53  115 1    
   106   53  116 1    
   107   54   55 am   BACKBONE|DICT|INTERRES
   108   54  117 1    
   109   55   56 2    
   110   55   57 1    
   111   57   58 1    
   112   57   59 1    
   113   57  118 1    
   114   58  119 1    
   115   58  120 1    
   116   58  121 1    
   117   59   60 am   BACKBONE|DICT|INTERRES
   118   59  122 1    
   119   60   61 2    
   120   60   62 1    
   121   62   63 1    
   122   62   64 1    
   123   62  123 1    
   124   63  124 1    
   125   63  125 1    
   126   63  126 1    
   127   64   65 am   BACKBONE|DICT|INTERRES
   128   64  127 1    
   129   65   66 2    
@<TRIPOS>SUBSTRUCTURE
     1 UNK         1 GROUP             0       ****    0 ROOT    
