@<TRIPOS>MOLECULE
3R135
127   129    1
SMALL
USER_CHARGES


@<TRIPOS>ATOM
      1 CA        -82.5091   22.3253  -72.9802 C.3       0 UNK        -0.1998 
      2 C         -81.6976   23.5849  -73.2360 C.2       0 UNK         0.4909 
      3 O         -80.9212   23.6226  -74.1936 O.2       0 UNK        -0.5240 
      4 N         -81.8865   24.6201  -72.4016 N.am      1 UNK        -0.4739 
      5 CA        -81.2006   25.9274  -72.3751 C.3       1 UNK         0.0864 
      6 C6        -79.6707   25.8057  -72.1520 C.3       11 UNK        -0.0881 
      7 S7        -79.1953   25.2976  -70.4674 S.3       11 UNK        -0.2682 
      8 C8        -79.1341   26.8894  -69.5712 C.3       11 UNK         0.0289 
      9 C9        -78.1676   27.8953  -70.1878 C.ar      11 UNK        -0.0687 
     10 C10       -78.6411   28.8371  -71.1064 C.ar      11 UNK        -0.0823 
     11 C11       -77.7682   29.7451  -71.7054 C.ar      11 UNK        -0.0830 
     12 C12       -76.4322   29.7758  -71.3053 C.ar      11 UNK        -0.1021 
     13 C13       -75.9329   28.8323  -70.4041 C.ar      11 UNK        -0.0753 
     14 C14       -76.8088   27.8894  -69.8494 C.ar      11 UNK        -0.0933 
     15 C15       -74.4539   28.8354  -70.0285 C.3       11 UNK         0.0166 
     16 S16       -73.3507   28.5598  -71.4627 S.3       11 UNK        -0.2615 
     17 C17       -73.0272   30.2582  -72.0646 C.3       11 UNK        -0.0865 
     18 CA        -73.5872   30.5177  -73.4957 C.3       10 UNK         0.0862 
     19 C         -73.7025   32.0331  -73.8478 C.2       10 UNK         0.5551 
     20 N         -73.5741   32.4298  -75.1083 N.am      10 UNK        -0.7319 
     21 O         -73.9469   32.8620  -72.9745 O.2       10 UNK        -0.5018 
     22 N         -72.9482   29.6887  -74.5284 N.am      10 UNK        -0.4509 
     23 C         -71.6829   29.7578  -74.9586 C.2       10 UNK         0.4899 
     24 O         -70.8387   30.5372  -74.5132 O.2       10 UNK        -0.4839 
     25 CA        -71.3238   28.7778  -76.0916 C.3       9 UNK         0.0222 
     26 CB        -69.8481   28.8642  -76.5369 C.3       9 UNK        -0.1966 
     27 N         -71.7056   27.4019  -75.7553 N.am      9 UNK        -0.4218 
     28 C         -71.2343   26.6492  -74.7481 C.2       9 UNK         0.5020 
     29 O         -70.3152   26.9928  -74.0030 O.2       9 UNK        -0.5274 
     30 CA        -71.8978   25.2797  -74.5106 C.3       8 UNK         0.0270 
     31 CB        -72.6075   25.2583  -73.1468 C.3       8 UNK        -0.1976 
     32 N         -72.8492   24.8959  -75.5607 N.am      8 UNK        -0.4313 
     33 C         -72.4860   24.3656  -76.7378 C.2       8 UNK         0.5041 
     34 O         -71.3165   24.1337  -77.0473 O.2       8 UNK        -0.5577 
     35 CA        -73.5999   24.0456  -77.7498 C.3       7 UNK         0.0284 
     36 CB        -74.2250   22.6756  -77.4457 C.3       7 UNK        -0.1958 
     37 N         -74.6436   25.0736  -77.8347 N.am      7 UNK        -0.4454 
     38 C         -74.4353   26.3180  -78.2917 C.2       7 UNK         0.5089 
     39 O         -73.3318   26.7489  -78.6267 O.2       7 UNK        -0.5125 
     40 CA        -75.6558   27.2524  -78.3690 C.3       6 UNK         0.0408 
     41 CB        -76.5476   26.9035  -79.5710 C.3       6 UNK        -0.1791 
     42 N         -76.4530   27.2474  -77.1430 N.am      6 UNK        -0.4762 
     43 C         -76.0019   27.6608  -75.9488 C.2       6 UNK         0.5007 
     44 O         -74.8733   28.1166  -75.7643 O.2       6 UNK        -0.5032 
     45 CA        -76.9530   27.4639  -74.7513 C.3       5 UNK         0.0783 
     46 C46       -78.0852   28.5302  -74.7363 C.3       11 UNK        -0.0857 
     47 S47       -77.4928   30.2336  -74.4212 S.3       11 UNK        -0.2512 
     48 C48       -78.2546   30.6617  -72.8167 C.3       11 UNK         0.0225 
     49 N         -77.4640   26.0824  -74.7476 N.am      5 UNK        -0.4615 
     50 C         -76.6880   24.9940  -74.5933 C.2       4 UNK         0.5053 
     51 O         -75.4893   25.0507  -74.3309 O.2       4 UNK        -0.5105 
     52 CA        -77.3037   23.6070  -74.8540 C.3       4 UNK         0.0263 
     53 CB        -77.5860   22.8158  -73.5647 C.3       4 UNK        -0.1981 
     54 N         -78.4839   23.6492  -75.7180 N.am      4 UNK        -0.4224 
     55 C         -78.4085   23.8513  -77.0425 C.2       3 UNK         0.4895 
     56 O         -77.3477   23.9955  -77.6512 O.2       3 UNK        -0.5091 
     57 CA        -79.7361   23.9679  -77.8059 C.3       3 UNK         0.0250 
     58 CB        -80.3809   22.5856  -77.9952 C.3       3 UNK        -0.1996 
     59 N         -80.6809   24.8663  -77.1406 N.am      3 UNK        -0.4254 
     60 C         -80.4816   26.1800  -76.9564 C.2       2 UNK         0.5004 
     61 O         -79.4895   26.7872  -77.3604 O.2       2 UNK        -0.5226 
     62 CA        -81.5144   26.9061  -76.0897 C.3       2 UNK         0.0269 
     63 CB        -82.9155   26.9006  -76.7252 C.3       2 UNK        -0.1926 
     64 N         -81.5419   26.2420  -74.7904 N.am      2 UNK        -0.4687 
     65 C         -81.4707   26.8347  -73.5980 C.2       1 UNK         0.5165 
     66 O         -81.5602   28.0519  -73.4365 O.2       1 UNK        -0.5079 
     67 H67       -83.1328   22.1002  -73.8447 H         1 UNK         0.0900 
     68 H68       -81.8416   21.4808  -72.8122 H         1 UNK         0.0900 
     69 H69       -83.1564   22.4256  -72.1093 H         1 UNK         0.0900 
     70 H70       -82.5695   24.5063  -71.6652 H         1 UNK         0.2959 
     71 H71       -81.6211   26.4640  -71.5229 H         1 UNK         0.1079 
     72 H72       -79.2526   25.0890  -72.8492 H         1 UNK         0.0837 
     73 H73       -79.1471   26.7227  -72.3970 H         1 UNK         0.0837 
     74 H74       -80.1391   27.3117  -69.5282 H         1 UNK         0.0685 
     75 H75       -78.8467   26.6956  -68.5367 H         1 UNK         0.0685 
     76 H76       -79.6849   28.8311  -71.3909 H         1 UNK         0.1434 
     77 H77       -75.7759   30.5191  -71.7272 H         1 UNK         0.1329 
     78 H78       -76.4379   27.1536  -69.1490 H         1 UNK         0.1335 
     79 H79       -74.2539   28.0466  -69.3019 H         1 UNK         0.0680 
     80 H80       -74.2034   29.7712  -69.5277 H         1 UNK         0.0680 
     81 H81       -73.4483   30.9638  -71.3476 H         1 UNK         0.1032 
     82 H82       -71.9511   30.4349  -72.0419 H         1 UNK         0.1032 
     83 H83       -74.6187   30.1732  -73.5103 H         1 UNK         0.0461 
     84 H84       -73.6620   33.4086  -75.3308 H         1 UNK         0.3453 
     85 H85       -73.3935   31.7583  -75.8367 H         1 UNK         0.3453 
     86 H86       -73.5766   29.0283  -74.9854 H         1 UNK         0.2984 
     87 H87       -71.9393   29.0587  -76.9477 H         1 UNK         0.0554 
     88 H88       -69.6108   29.8650  -76.8995 H         1 UNK         0.0847 
     89 H89       -69.6376   28.1671  -77.3479 H         1 UNK         0.0847 
     90 H90       -69.1601   28.6465  -75.7197 H         1 UNK         0.0847 
     91 H91       -72.4693   27.0215  -76.2992 H         1 UNK         0.3141 
     92 H92       -71.0976   24.5372  -74.4779 H         1 UNK         0.0743 
     93 H93       -73.0643   24.2887  -72.9485 H         1 UNK         0.0784 
     94 H94       -71.9067   25.4599  -72.3356 H         1 UNK         0.0784 
     95 H95       -73.3896   26.0162  -73.0921 H         1 UNK         0.0784 
     96 H96       -73.8353   25.0282  -75.3450 H         1 UNK         0.3213 
     97 H97       -73.1346   23.9836  -78.7362 H         1 UNK         0.0855 
     98 H98       -74.6203   22.6291  -76.4324 H         1 UNK         0.0814 
     99 H99       -73.4796   21.8843  -77.5343 H         1 UNK         0.0814 
    100 H100      -75.0328   22.4386  -78.1383 H         1 UNK         0.0814 
    101 H101      -75.5970   24.7844  -77.6272 H         1 UNK         0.3105 
    102 H102      -75.2844   28.2692  -78.5134 H         1 UNK         0.0547 
    103 H103      -77.3679   27.6141  -79.6742 H         1 UNK         0.0837 
    104 H104      -75.9770   26.9294  -80.5002 H         1 UNK         0.0837 
    105 H105      -76.9812   25.9073  -79.4825 H         1 UNK         0.0837 
    106 H106      -77.4038   26.8990  -77.2154 H         1 UNK         0.3020 
    107 H107      -76.3606   27.5895  -73.8407 H         1 UNK         0.1245 
    108 H108      -78.8274   28.2814  -73.9816 H         1 UNK         0.0781 
    109 H109      -78.6260   28.5399  -75.6824 H         1 UNK         0.0781 
    110 H110      -79.3409   30.6216  -72.9138 H         1 UNK         0.0836 
    111 H111      -78.0045   31.6941  -72.5680 H         1 UNK         0.0836 
    112 H112      -78.4217   25.9504  -75.0322 H         1 UNK         0.3022 
    113 H113      -76.5359   23.0412  -75.3811 H         1 UNK         0.0747 
    114 H114      -78.5088   23.1088  -73.0719 H         1 UNK         0.0793 
    115 H115      -77.6679   21.7505  -73.7805 H         1 UNK         0.0793 
    116 H116      -76.7760   22.9335  -72.8433 H         1 UNK         0.0793 
    117 H117      -79.3935   23.5516  -75.2702 H         1 UNK         0.3047 
    118 H118      -79.5158   24.3824  -78.7922 H         1 UNK         0.0822 
    119 H119      -79.6934   21.8996  -78.4922 H         1 UNK         0.0807 
    120 H120      -81.2768   22.6477  -78.6133 H         1 UNK         0.0807 
    121 H121      -80.6612   22.1339  -77.0425 H         1 UNK         0.0807 
    122 H122      -81.5142   24.4408  -76.7613 H         1 UNK         0.2946 
    123 H123      -81.1838   27.9420  -75.9802 H         1 UNK         0.1144 
    124 H124      -83.6175   27.4802  -76.1256 H         1 UNK         0.0793 
    125 H125      -83.3199   25.8929  -76.8250 H         1 UNK         0.0793 
    126 H126      -82.8941   27.3472  -77.7202 H         1 UNK         0.0793 
    127 H127      -81.4044   25.2329  -74.7877 H         1 UNK         0.2896 
@<TRIPOS>BOND
     1    1    2 1    
     2    1   67 1    
     3    1   68 1    
     4    1   69 1    
     5    2    3 2    
     6    2    4 am   BACKBONE|DICT|INTERRES
     7    4    5 1    
     8    4   70 1    
     9    5    6 1    
    10    5   65 1    
    11    5   71 1    
    12    6    7 1    
    13    6   72 1    
    14    6   73 1    
    15    7    8 1    
    16    8    9 1    
    17    8   74 1    
    18    8   75 1    
    19    9   10 ar   
    20    9   14 ar   
    21   10   11 ar   
    22   10   76 1    
    23   11   12 ar   
    24   11   48 1    
    25   12   13 ar   
    26   12   77 1    
    27   13   14 ar   
    28   13   15 1    
    29   14   78 1    
    30   15   16 1    
    31   15   79 1    
    32   15   80 1    
    33   16   17 1    
    34   17   18 1    
    35   17   81 1    
    36   17   82 1    
    37   18   19 1    
    38   18   22 1    
    39   18   83 1    
    40   19   20 am   BACKBONE|DICT|INTERRES
    41   19   21 2    
    42   20   84 1    
    43   20   85 1    
    44   22   23 am   BACKBONE|DICT|INTERRES
    45   22   86 1    
    46   23   24 2    
    47   23   25 1    
    48   25   26 1    
    49   25   27 1    
    50   25   87 1    
    51   26   88 1    
    52   26   89 1    
    53   26   90 1    
    54   27   28 am   BACKBONE|DICT|INTERRES
    55   27   91 1    
    56   28   29 2    
    57   28   30 1    
    58   30   31 1    
    59   30   32 1    
    60   30   92 1    
    61   31   93 1    
    62   31   94 1    
    63   31   95 1    
    64   32   33 am   BACKBONE|DICT|INTERRES
    65   32   96 1    
    66   33   34 2    
    67   33   35 1    
    68   35   36 1    
    69   35   37 1    
    70   35   97 1    
    71   36   98 1    
    72   36   99 1    
    73   36  100 1    
    74   37   38 am   BACKBONE|DICT|INTERRES
    75   37  101 1    
    76   38   39 2    
    77   38   40 1    
    78   40   41 1    
    79   40   42 1    
    80   40  102 1    
    81   41  103 1    
    82   41  104 1    
    83   41  105 1    
    84   42   43 am   BACKBONE|DICT|INTERRES
    85   42  106 1    
    86   43   44 2    
    87   43   45 1    
    88   45   46 1    
    89   45   49 1    
    90   45  107 1    
    91   46   47 1    
    92   46  108 1    
    93   46  109 1    
    94   47   48 1    
    95   48  110 1    
    96   48  111 1    
    97   49   50 am   BACKBONE|DICT|INTERRES
    98   49  112 1    
    99   50   51 2    
   100   50   52 1    
   101   52   53 1    
   102   52   54 1    
   103   52  113 1    
   104   53  114 1    
   105   53  115 1    
   106   53  116 1    
   107   54   55 am   BACKBONE|DICT|INTERRES
   108   54  117 1    
   109   55   56 2    
   110   55   57 1    
   111   57   58 1    
   112   57   59 1    
   113   57  118 1    
   114   58  119 1    
   115   58  120 1    
   116   58  121 1    
   117   59   60 am   BACKBONE|DICT|INTERRES
   118   59  122 1    
   119   60   61 2    
   120   60   62 1    
   121   62   63 1    
   122   62   64 1    
   123   62  123 1    
   124   63  124 1    
   125   63  125 1    
   126   63  126 1    
   127   64   65 am   BACKBONE|DICT|INTERRES
   128   64  127 1    
   129   65   66 2    
@<TRIPOS>SUBSTRUCTURE
     1 UNK         1 GROUP             0       ****    0 ROOT    
