@<TRIPOS>MOLECULE
3R135
127   129    1
SMALL
USER_CHARGES


@<TRIPOS>ATOM
      1 CA        -77.9755   31.8882  -77.0229 C.3       0 UNK        -0.1998 
      2 C         -78.0726   30.6272  -76.1780 C.2       0 UNK         0.4909 
      3 O         -77.1253   29.8429  -76.1482 O.2       0 UNK        -0.5240 
      4 N         -79.1984   30.4395  -75.4825 N.am      1 UNK        -0.4739 
      5 CA        -79.4981   29.2609  -74.6623 C.3       1 UNK         0.0864 
      6 C6        -80.5979   29.5804  -73.6165 C.3       11 UNK        -0.0881 
      7 S7        -80.0558   30.8193  -72.3940 S.3       11 UNK        -0.2682 
      8 C8        -79.7721   29.7753  -70.9282 C.3       11 UNK         0.0289 
      9 C9        -78.6808   28.7409  -71.1661 C.ar      11 UNK        -0.0687 
     10 C10       -78.9912   27.3783  -71.2298 C.ar      11 UNK        -0.0823 
     11 C11       -77.9914   26.4222  -71.4440 C.ar      11 UNK        -0.0830 
     12 C12       -76.6651   26.8563  -71.5808 C.ar      11 UNK        -0.1021 
     13 C13       -76.3431   28.2164  -71.5443 C.ar      11 UNK        -0.0753 
     14 C14       -77.3575   29.1529  -71.3342 C.ar      11 UNK        -0.0933 
     15 C15       -74.9106   28.6701  -71.7977 C.3       11 UNK         0.0166 
     16 S16       -74.2917   29.8161  -70.5242 S.3       11 UNK        -0.2615 
     17 C17       -72.6017   30.1358  -71.1379 C.3       11 UNK        -0.0865 
     18 CA        -72.4083   31.5734  -71.7100 C.3       10 UNK         0.0862 
     19 C         -70.9078   31.9046  -71.9854 C.2       10 UNK         0.5551 
     20 N         -70.5787   32.6878  -73.0056 N.am      10 UNK        -0.7319 
     21 O         -70.0271   31.4753  -71.2437 O.2       10 UNK        -0.5018 
     22 N         -73.3238   31.9024  -72.8226 N.am      10 UNK        -0.4509 
     23 C         -73.3802   31.2853  -74.0103 C.2       10 UNK         0.4899 
     24 O         -72.6976   30.3003  -74.3022 O.2       10 UNK        -0.4839 
     25 CA        -74.4007   31.8588  -75.0156 C.3       9 UNK         0.0222 
     26 CB        -74.0798   33.3173  -75.4071 C.3       9 UNK        -0.1966 
     27 N         -74.5612   31.0010  -76.1971 N.am      9 UNK        -0.4218 
     28 C         -73.6823   30.7569  -77.1827 C.2       9 UNK         0.5020 
     29 O         -72.6401   31.3876  -77.3693 O.2       9 UNK        -0.5274 
     30 CA        -73.9987   29.5235  -78.0403 C.3       8 UNK         0.0270 
     31 CB        -72.9460   29.2351  -79.1293 C.3       8 UNK        -0.1976 
     32 N         -74.1002   28.3969  -77.1180 N.am      8 UNK        -0.4313 
     33 C         -74.8563   27.3088  -77.2761 C.2       8 UNK         0.5041 
     34 O         -75.4732   27.0275  -78.3072 O.2       8 UNK        -0.5577 
     35 CA        -74.9929   26.4350  -76.0199 C.3       7 UNK         0.0284 
     36 CB        -76.1155   26.9867  -75.1299 C.3       7 UNK        -0.1958 
     37 N         -75.2757   25.0325  -76.3175 N.am      7 UNK        -0.4454 
     38 C         -74.3836   24.1673  -76.8218 C.2       7 UNK         0.5089 
     39 O         -73.2445   24.4824  -77.1721 O.2       7 UNK        -0.5125 
     40 CA        -74.8322   22.6909  -76.8762 C.3       6 UNK         0.0408 
     41 CB        -73.6841   21.7130  -77.2025 C.3       6 UNK        -0.1791 
     42 N         -75.5331   22.2980  -75.6462 N.am      6 UNK        -0.4762 
     43 C         -75.0599   22.3397  -74.3883 C.2       6 UNK         0.5007 
     44 O         -73.8704   22.4987  -74.1120 O.2       6 UNK        -0.5032 
     45 CA        -76.0888   22.2793  -73.2371 C.3       5 UNK         0.0783 
     46 C46       -76.0653   23.6345  -72.4887 C.3       11 UNK        -0.0857 
     47 S47       -77.1622   23.7202  -71.0338 S.3       11 UNK        -0.2512 
     48 C48       -78.4001   24.9498  -71.5783 C.3       11 UNK         0.0225 
     49 N         -77.4314   21.9614  -73.7382 N.am      5 UNK        -0.4615 
     50 C         -77.9482   20.7266  -73.7877 C.2       4 UNK         0.5053 
     51 O         -77.3878   19.7295  -73.3324 O.2       4 UNK        -0.5105 
     52 CA        -79.3088   20.5683  -74.4936 C.3       4 UNK         0.0263 
     53 CB        -80.4558   20.7230  -73.4818 C.3       4 UNK        -0.1981 
     54 N         -79.5088   21.5132  -75.5975 N.am      4 UNK        -0.4224 
     55 C         -78.7439   21.5981  -76.6968 C.2       3 UNK         0.4895 
     56 O         -77.8213   20.8235  -76.9439 O.2       3 UNK        -0.5091 
     57 CA        -79.0050   22.7686  -77.6625 C.3       3 UNK         0.0250 
     58 CB        -79.7123   22.2687  -78.9323 C.3       3 UNK        -0.1996 
     59 N         -79.7822   23.8658  -77.0788 N.am      3 UNK        -0.4254 
     60 C         -79.3870   24.6563  -76.0712 C.2       2 UNK         0.5004 
     61 O         -78.2999   24.5524  -75.4928 O.2       2 UNK        -0.5226 
     62 CA        -80.4422   25.6543  -75.5813 C.3       2 UNK         0.0269 
     63 CB        -81.3292   24.9968  -74.5092 C.3       2 UNK        -0.1926 
     64 N         -79.8365   26.8589  -75.0126 N.am      2 UNK        -0.4687 
     65 C         -79.9617   28.0831  -75.5426 C.2       1 UNK         0.5165 
     66 O         -80.4966   28.3054  -76.6329 O.2       1 UNK        -0.5079 
     67 H67       -78.9054   32.4565  -77.0152 H         1 UNK         0.0900 
     68 H68       -77.7454   31.6293  -78.0560 H         1 UNK         0.0900 
     69 H69       -77.1807   32.5319  -76.6473 H         1 UNK         0.0900 
     70 H70       -79.9458   31.1139  -75.5575 H         1 UNK         0.2959 
     71 H71       -78.5865   28.9559  -74.1424 H         1 UNK         0.1079 
     72 H72       -81.4956   29.9600  -74.1087 H         1 UNK         0.0837 
     73 H73       -80.9138   28.6792  -73.0874 H         1 UNK         0.0837 
     74 H74       -79.4837   30.4130  -70.0914 H         1 UNK         0.0685 
     75 H75       -80.7094   29.2971  -70.6394 H         1 UNK         0.0685 
     76 H76       -80.0198   27.0619  -71.1202 H         1 UNK         0.1434 
     77 H77       -75.8712   26.1459  -71.7460 H         1 UNK         0.1329 
     78 H78       -77.1195   30.2077  -71.3121 H         1 UNK         0.1335 
     79 H79       -74.2395   27.8115  -71.8528 H         1 UNK         0.0680 
     80 H80       -74.8734   29.1574  -72.7713 H         1 UNK         0.0680 
     81 H81       -72.3186   29.3839  -71.8758 H         1 UNK         0.1032 
     82 H82       -71.9322   29.9755  -70.2909 H         1 UNK         0.1032 
     83 H83       -72.6852   32.2642  -70.9128 H         1 UNK         0.0461 
     84 H84       -71.2894   33.0529  -73.6182 H         1 UNK         0.3453 
     85 H85       -69.6083   32.9057  -73.1684 H         1 UNK         0.3453 
     86 H86       -73.9284   32.6945  -72.6593 H         1 UNK         0.2984 
     87 H87       -75.3714   31.8503  -74.5172 H         1 UNK         0.0554 
     88 H88       -74.7668   33.6830  -76.1702 H         1 UNK         0.0847 
     89 H89       -73.0657   33.4239  -75.7930 H         1 UNK         0.0847 
     90 H90       -74.1693   33.9862  -74.5508 H         1 UNK         0.0847 
     91 H91       -75.4009   30.4210  -76.1772 H         1 UNK         0.3141 
     92 H92       -74.9670   29.6936  -78.5166 H         1 UNK         0.0743 
     93 H93       -71.9613   29.0504  -78.6982 H         1 UNK         0.0784 
     94 H94       -73.2197   28.3633  -79.7237 H         1 UNK         0.0784 
     95 H95       -72.8526   30.0788  -79.8141 H         1 UNK         0.0784 
     96 H96       -73.6463   28.5474  -76.2251 H         1 UNK         0.3213 
     97 H97       -74.0557   26.4708  -75.4596 H         1 UNK         0.0855 
     98 H98       -75.8692   27.9804  -74.7557 H         1 UNK         0.0814 
     99 H99       -76.2948   26.3546  -74.2658 H         1 UNK         0.0814 
    100 H100      -77.0522   27.0685  -75.6813 H         1 UNK         0.0814 
    101 H101      -76.2074   24.7062  -76.0881 H         1 UNK         0.3105 
    102 H102      -75.5621   22.6210  -77.6837 H         1 UNK         0.0547 
    103 H103      -73.2477   21.9375  -78.1763 H         1 UNK         0.0837 
    104 H104      -72.8799   21.7672  -76.4683 H         1 UNK         0.0837 
    105 H105      -74.0394   20.6833  -77.2366 H         1 UNK         0.0837 
    106 H106      -76.5095   22.0631  -75.7686 H         1 UNK         0.3020 
    107 H107      -75.7535   21.5014  -72.5472 H         1 UNK         0.1245 
    108 H108      -76.3287   24.4313  -73.1826 H         1 UNK         0.0781 
    109 H109      -75.0567   23.8596  -72.1358 H         1 UNK         0.0781 
    110 H110      -79.3071   24.7712  -70.9987 H         1 UNK         0.0836 
    111 H111      -78.6597   24.7515  -72.6179 H         1 UNK         0.0836 
    112 H112      -77.9512   22.7322  -74.1384 H         1 UNK         0.3022 
    113 H113      -79.3482   19.5594  -74.9099 H         1 UNK         0.0747 
    114 H114      -81.4239   20.5323  -73.9454 H         1 UNK         0.0793 
    115 H115      -80.3479   20.0142  -72.6594 H         1 UNK         0.0793 
    116 H116      -80.4807   21.7235  -73.0477 H         1 UNK         0.0793 
    117 H117      -80.2567   22.1816  -75.4904 H         1 UNK         0.3047 
    118 H118      -78.0318   23.1720  -77.9498 H         1 UNK         0.0822 
    119 H119      -79.8247   23.0676  -79.6657 H         1 UNK         0.0807 
    120 H120      -80.7038   21.8701  -78.7133 H         1 UNK         0.0807 
    121 H121      -79.1400   21.4726  -79.4110 H         1 UNK         0.0807 
    122 H122      -80.6996   24.0138  -77.4755 H         1 UNK         0.2946 
    123 H123      -81.0795   25.9166  -76.4294 H         1 UNK         0.1144 
    124 H124      -81.8492   24.1244  -74.9072 H         1 UNK         0.0793 
    125 H125      -82.0938   25.6876  -74.1532 H         1 UNK         0.0793 
    126 H126      -80.7537   24.6657  -73.6453 H         1 UNK         0.0793 
    127 H127      -79.3230   26.7350  -74.1518 H         1 UNK         0.2896 
@<TRIPOS>BOND
     1    1    2 1    
     2    1   67 1    
     3    1   68 1    
     4    1   69 1    
     5    2    3 2    
     6    2    4 am   BACKBONE|DICT|INTERRES
     7    4    5 1    
     8    4   70 1    
     9    5    6 1    
    10    5   65 1    
    11    5   71 1    
    12    6    7 1    
    13    6   72 1    
    14    6   73 1    
    15    7    8 1    
    16    8    9 1    
    17    8   74 1    
    18    8   75 1    
    19    9   10 ar   
    20    9   14 ar   
    21   10   11 ar   
    22   10   76 1    
    23   11   12 ar   
    24   11   48 1    
    25   12   13 ar   
    26   12   77 1    
    27   13   14 ar   
    28   13   15 1    
    29   14   78 1    
    30   15   16 1    
    31   15   79 1    
    32   15   80 1    
    33   16   17 1    
    34   17   18 1    
    35   17   81 1    
    36   17   82 1    
    37   18   19 1    
    38   18   22 1    
    39   18   83 1    
    40   19   20 am   BACKBONE|DICT|INTERRES
    41   19   21 2    
    42   20   84 1    
    43   20   85 1    
    44   22   23 am   BACKBONE|DICT|INTERRES
    45   22   86 1    
    46   23   24 2    
    47   23   25 1    
    48   25   26 1    
    49   25   27 1    
    50   25   87 1    
    51   26   88 1    
    52   26   89 1    
    53   26   90 1    
    54   27   28 am   BACKBONE|DICT|INTERRES
    55   27   91 1    
    56   28   29 2    
    57   28   30 1    
    58   30   31 1    
    59   30   32 1    
    60   30   92 1    
    61   31   93 1    
    62   31   94 1    
    63   31   95 1    
    64   32   33 am   BACKBONE|DICT|INTERRES
    65   32   96 1    
    66   33   34 2    
    67   33   35 1    
    68   35   36 1    
    69   35   37 1    
    70   35   97 1    
    71   36   98 1    
    72   36   99 1    
    73   36  100 1    
    74   37   38 am   BACKBONE|DICT|INTERRES
    75   37  101 1    
    76   38   39 2    
    77   38   40 1    
    78   40   41 1    
    79   40   42 1    
    80   40  102 1    
    81   41  103 1    
    82   41  104 1    
    83   41  105 1    
    84   42   43 am   BACKBONE|DICT|INTERRES
    85   42  106 1    
    86   43   44 2    
    87   43   45 1    
    88   45   46 1    
    89   45   49 1    
    90   45  107 1    
    91   46   47 1    
    92   46  108 1    
    93   46  109 1    
    94   47   48 1    
    95   48  110 1    
    96   48  111 1    
    97   49   50 am   BACKBONE|DICT|INTERRES
    98   49  112 1    
    99   50   51 2    
   100   50   52 1    
   101   52   53 1    
   102   52   54 1    
   103   52  113 1    
   104   53  114 1    
   105   53  115 1    
   106   53  116 1    
   107   54   55 am   BACKBONE|DICT|INTERRES
   108   54  117 1    
   109   55   56 2    
   110   55   57 1    
   111   57   58 1    
   112   57   59 1    
   113   57  118 1    
   114   58  119 1    
   115   58  120 1    
   116   58  121 1    
   117   59   60 am   BACKBONE|DICT|INTERRES
   118   59  122 1    
   119   60   61 2    
   120   60   62 1    
   121   62   63 1    
   122   62   64 1    
   123   62  123 1    
   124   63  124 1    
   125   63  125 1    
   126   63  126 1    
   127   64   65 am   BACKBONE|DICT|INTERRES
   128   64  127 1    
   129   65   66 2    
@<TRIPOS>SUBSTRUCTURE
     1 UNK         1 GROUP             0       ****    0 ROOT    
