@<TRIPOS>MOLECULE
3R135
127   129    1
SMALL
USER_CHARGES


@<TRIPOS>ATOM
      1 CA        -84.4664   25.2235  -69.9641 C.3       0 UNK        -0.1998 
      2 C         -83.9754   26.0119  -71.1690 C.2       0 UNK         0.4909 
      3 O         -84.7671   26.6995  -71.8153 O.2       0 UNK        -0.5240 
      4 N         -82.6735   25.9257  -71.4685 N.am      1 UNK        -0.4739 
      5 CA        -82.0328   26.5682  -72.6216 C.3       1 UNK         0.0864 
      6 C6        -80.4889   26.5443  -72.5060 C.3       11 UNK        -0.0881 
      7 S7        -79.8773   27.3808  -71.0051 S.3       11 UNK        -0.2682 
      8 C8        -79.4611   29.0356  -71.6363 C.3       11 UNK         0.0289 
      9 C9        -78.2046   29.0247  -72.4950 C.ar      11 UNK        -0.0687 
     10 C10       -78.2987   29.1212  -73.8867 C.ar      11 UNK        -0.0823 
     11 C11       -77.1447   29.1450  -74.6749 C.ar      11 UNK        -0.0830 
     12 C12       -75.8900   29.0794  -74.0624 C.ar      11 UNK        -0.1021 
     13 C13       -75.7836   28.9865  -72.6721 C.ar      11 UNK        -0.0753 
     14 C14       -76.9442   28.9527  -71.8935 C.ar      11 UNK        -0.0933 
     15 C15       -74.4147   28.9489  -72.0135 C.3       11 UNK         0.0166 
     16 S16       -73.9539   30.5973  -71.4005 S.3       11 UNK        -0.2615 
     17 C17       -72.1476   30.4230  -71.2027 C.3       11 UNK        -0.0865 
     18 CA        -71.3737   31.0981  -72.3681 C.3       10 UNK         0.0862 
     19 C         -69.8496   31.2201  -72.0684 C.2       10 UNK         0.5551 
     20 N         -68.9516   30.8829  -72.9872 N.am      10 UNK        -0.7319 
     21 O         -69.4694   31.6448  -70.9800 O.2       10 UNK        -0.5018 
     22 N         -71.6673   30.4431  -73.6528 N.am      10 UNK        -0.4509 
     23 C         -71.8651   31.0698  -74.8179 C.2       10 UNK         0.4899 
     24 O         -71.8915   32.2951  -74.9453 O.2       10 UNK        -0.4839 
     25 CA        -72.0506   30.1581  -76.0495 C.3       9 UNK         0.0222 
     26 CB        -71.8405   30.9048  -77.3834 C.3       9 UNK        -0.1966 
     27 N         -71.2281   28.9393  -76.0076 N.am      9 UNK        -0.4218 
     28 C         -69.8885   28.8708  -75.9033 C.2       9 UNK         0.5020 
     29 O         -69.1637   29.8595  -75.7830 O.2       9 UNK        -0.5274 
     30 CA        -69.2300   27.4766  -75.8825 C.3       8 UNK         0.0270 
     31 CB        -68.7492   27.1390  -74.4607 C.3       8 UNK        -0.1976 
     32 N         -70.1019   26.3999  -76.3543 N.am      8 UNK        -0.4313 
     33 C         -70.5141   26.2318  -77.6181 C.2       8 UNK         0.5041 
     34 O         -70.1082   26.9062  -78.5651 O.2       8 UNK        -0.5577 
     35 CA        -71.5813   25.1475  -77.8660 C.3       7 UNK         0.0284 
     36 CB        -70.9376   23.8918  -78.4769 C.3       7 UNK        -0.1958 
     37 N         -72.3570   24.7618  -76.6775 N.am      7 UNK        -0.4454 
     38 C         -73.1300   25.5816  -75.9518 C.2       7 UNK         0.5089 
     39 O         -73.2244   26.7954  -76.1489 O.2       7 UNK        -0.5125 
     40 CA        -73.8595   24.9524  -74.7572 C.3       6 UNK         0.0408 
     41 CB        -73.1445   25.3096  -73.4443 C.3       6 UNK        -0.1791 
     42 N         -75.2431   25.4188  -74.6974 N.am      6 UNK        -0.4762 
     43 C         -76.2266   24.9568  -75.4811 C.2       6 UNK         0.5007 
     44 O         -76.0789   24.0494  -76.3046 O.2       6 UNK        -0.5032 
     45 CA        -77.6155   25.6159  -75.3136 C.3       5 UNK         0.0783 
     46 C46       -77.9860   26.5402  -76.5069 C.3       11 UNK        -0.0857 
     47 S47       -76.7077   27.7426  -77.0230 S.3       11 UNK        -0.2512 
     48 C48       -77.2497   29.2635  -76.1875 C.3       11 UNK         0.0225 
     49 N         -78.6516   24.5925  -75.1151 N.am      5 UNK        -0.4615 
     50 C         -78.6670   23.6787  -74.1305 C.2       4 UNK         0.5053 
     51 O         -77.8634   23.6842  -73.1976 O.2       4 UNK        -0.5105 
     52 CA        -79.7495   22.5790  -74.1639 C.3       4 UNK         0.0263 
     53 CB        -80.4386   22.4117  -72.7967 C.3       4 UNK        -0.1981 
     54 N         -80.7703   22.7983  -75.1916 N.am      4 UNK        -0.4224 
     55 C         -80.6874   22.3637  -76.4582 C.2       3 UNK         0.4895 
     56 O         -79.7507   21.6892  -76.8864 O.2       3 UNK        -0.5091 
     57 CA        -81.8247   22.7523  -77.4245 C.3       3 UNK         0.0250 
     58 CB        -82.8033   21.5796  -77.5998 C.3       3 UNK        -0.1996 
     59 N         -82.5754   23.9462  -77.0232 N.am      3 UNK        -0.4254 
     60 C         -82.0610   25.1788  -76.9135 C.2       2 UNK         0.5004 
     61 O         -80.8888   25.4496  -77.1711 O.2       2 UNK        -0.5226 
     62 CA        -82.9809   26.2892  -76.3706 C.3       2 UNK         0.0269 
     63 CB        -84.4865   25.9392  -76.4163 C.3       2 UNK        -0.1926 
     64 N         -82.5910   26.6971  -75.0128 N.am      2 UNK        -0.4687 
     65 C         -82.4799   25.9000  -73.9385 C.2       1 UNK         0.5165 
     66 O         -82.6788   24.6818  -73.9651 O.2       1 UNK        -0.5079 
     67 H67       -84.9056   25.8968  -69.2284 H         1 UNK         0.0900 
     68 H68       -85.2288   24.5078  -70.2702 H         1 UNK         0.0900 
     69 H69       -83.6593   24.6731  -69.4807 H         1 UNK         0.0900 
     70 H70       -82.0695   25.3480  -70.9024 H         1 UNK         0.2959 
     71 H71       -82.3616   27.6097  -72.6432 H         1 UNK         0.1079 
     72 H72       -80.0249   26.9874  -73.3876 H         1 UNK         0.0837 
     73 H73       -80.1280   25.5172  -72.4670 H         1 UNK         0.0837 
     74 H74       -80.3105   29.4380  -72.1906 H         1 UNK         0.0685 
     75 H75       -79.3091   29.7047  -70.7880 H         1 UNK         0.0685 
     76 H76       -79.2707   29.1869  -74.3559 H         1 UNK         0.1434 
     77 H77       -74.9969   29.1061  -74.6719 H         1 UNK         0.1329 
     78 H78       -76.8664   28.8890  -70.8166 H         1 UNK         0.1335 
     79 H79       -74.4099   28.2353  -71.1882 H         1 UNK         0.0680 
     80 H80       -73.6682   28.6054  -72.7296 H         1 UNK         0.0680 
     81 H81       -71.8874   30.8871  -70.2495 H         1 UNK         0.1032 
     82 H82       -71.8739   29.3709  -71.1073 H         1 UNK         0.1032 
     83 H83       -71.7238   32.1308  -72.4190 H         1 UNK         0.0461 
     84 H84       -67.9730   30.9790  -72.7684 H         1 UNK         0.3453 
     85 H85       -69.2285   30.5771  -73.9134 H         1 UNK         0.3453 
     86 H86       -71.6276   29.4358  -73.6551 H         1 UNK         0.2984 
     87 H87       -73.0878   29.8216  -76.0235 H         1 UNK         0.0554 
     88 H88       -72.5403   31.7354  -77.4831 H         1 UNK         0.0847 
     89 H89       -72.0003   30.2446  -78.2359 H         1 UNK         0.0847 
     90 H90       -70.8334   31.3159  -77.4617 H         1 UNK         0.0847 
     91 H91       -71.7539   28.0718  -76.0861 H         1 UNK         0.3141 
     92 H92       -68.3591   27.5200  -76.5399 H         1 UNK         0.0743 
     93 H93       -69.5796   27.0729  -73.7564 H         1 UNK         0.0784 
     94 H94       -68.2114   26.1909  -74.4376 H         1 UNK         0.0784 
     95 H95       -68.0664   27.9034  -74.0864 H         1 UNK         0.0784 
     96 H96       -70.4759   25.7777  -75.6533 H         1 UNK         0.3213 
     97 H97       -72.2859   25.5586  -78.5923 H         1 UNK         0.0855 
     98 H98       -70.2422   23.4162  -77.7841 H         1 UNK         0.0814 
     99 H99       -70.3780   24.1398  -79.3802 H         1 UNK         0.0814 
    100 H100      -71.6903   23.1553  -78.7589 H         1 UNK         0.0814 
    101 H101      -72.3318   23.7831  -76.4274 H         1 UNK         0.3105 
    102 H102      -73.8596   23.8651  -74.8620 H         1 UNK         0.0547 
    103 H103      -72.1269   24.9172  -73.4344 H         1 UNK         0.0837 
    104 H104      -73.0774   26.3875  -73.2990 H         1 UNK         0.0837 
    105 H105      -73.6608   24.8862  -72.5825 H         1 UNK         0.0837 
    106 H106      -75.4283   26.2011  -74.0863 H         1 UNK         0.3020 
    107 H107      -77.5943   26.2247  -74.4072 H         1 UNK         0.1245 
    108 H108      -78.9084   27.0782  -76.2835 H         1 UNK         0.0781 
    109 H109      -78.2076   25.9297  -77.3842 H         1 UNK         0.0781 
    110 H110      -78.2680   29.5047  -76.4968 H         1 UNK         0.0836 
    111 H111      -76.6246   30.0916  -76.5246 H         1 UNK         0.0836 
    112 H112      -79.3527   24.5323  -75.8431 H         1 UNK         0.3022 
    113 H113      -79.2275   21.6438  -74.3770 H         1 UNK         0.0747 
    114 H114      -81.1622   21.5966  -72.8177 H         1 UNK         0.0793 
    115 H115      -79.7144   22.1761  -72.0159 H         1 UNK         0.0793 
    116 H116      -80.9652   23.3140  -72.4894 H         1 UNK         0.0793 
    117 H117      -81.5669   23.3673  -74.9158 H         1 UNK         0.3047 
    118 H118      -81.3652   22.9627  -78.3927 H         1 UNK         0.0822 
    119 H119      -83.5620   21.8031  -78.3500 H         1 UNK         0.0807 
    120 H120      -83.3129   21.3364  -76.6664 H         1 UNK         0.0807 
    121 H121      -82.2805   20.6803  -77.9293 H         1 UNK         0.0807 
    122 H122      -83.5385   23.8076  -76.7528 H         1 UNK         0.2946 
    123 H123      -82.8228   27.1519  -77.0203 H         1 UNK         0.1144 
    124 H124      -85.0923   26.7985  -76.1283 H         1 UNK         0.0793 
    125 H125      -84.7464   25.1203  -75.7446 H         1 UNK         0.0793 
    126 H126      -84.7963   25.6570  -77.4236 H         1 UNK         0.0793 
    127 H127      -82.3728   27.6783  -74.9070 H         1 UNK         0.2896 
@<TRIPOS>BOND
     1    1    2 1    
     2    1   67 1    
     3    1   68 1    
     4    1   69 1    
     5    2    3 2    
     6    2    4 am   BACKBONE|DICT|INTERRES
     7    4    5 1    
     8    4   70 1    
     9    5    6 1    
    10    5   65 1    
    11    5   71 1    
    12    6    7 1    
    13    6   72 1    
    14    6   73 1    
    15    7    8 1    
    16    8    9 1    
    17    8   74 1    
    18    8   75 1    
    19    9   10 ar   
    20    9   14 ar   
    21   10   11 ar   
    22   10   76 1    
    23   11   12 ar   
    24   11   48 1    
    25   12   13 ar   
    26   12   77 1    
    27   13   14 ar   
    28   13   15 1    
    29   14   78 1    
    30   15   16 1    
    31   15   79 1    
    32   15   80 1    
    33   16   17 1    
    34   17   18 1    
    35   17   81 1    
    36   17   82 1    
    37   18   19 1    
    38   18   22 1    
    39   18   83 1    
    40   19   20 am   BACKBONE|DICT|INTERRES
    41   19   21 2    
    42   20   84 1    
    43   20   85 1    
    44   22   23 am   BACKBONE|DICT|INTERRES
    45   22   86 1    
    46   23   24 2    
    47   23   25 1    
    48   25   26 1    
    49   25   27 1    
    50   25   87 1    
    51   26   88 1    
    52   26   89 1    
    53   26   90 1    
    54   27   28 am   BACKBONE|DICT|INTERRES
    55   27   91 1    
    56   28   29 2    
    57   28   30 1    
    58   30   31 1    
    59   30   32 1    
    60   30   92 1    
    61   31   93 1    
    62   31   94 1    
    63   31   95 1    
    64   32   33 am   BACKBONE|DICT|INTERRES
    65   32   96 1    
    66   33   34 2    
    67   33   35 1    
    68   35   36 1    
    69   35   37 1    
    70   35   97 1    
    71   36   98 1    
    72   36   99 1    
    73   36  100 1    
    74   37   38 am   BACKBONE|DICT|INTERRES
    75   37  101 1    
    76   38   39 2    
    77   38   40 1    
    78   40   41 1    
    79   40   42 1    
    80   40  102 1    
    81   41  103 1    
    82   41  104 1    
    83   41  105 1    
    84   42   43 am   BACKBONE|DICT|INTERRES
    85   42  106 1    
    86   43   44 2    
    87   43   45 1    
    88   45   46 1    
    89   45   49 1    
    90   45  107 1    
    91   46   47 1    
    92   46  108 1    
    93   46  109 1    
    94   47   48 1    
    95   48  110 1    
    96   48  111 1    
    97   49   50 am   BACKBONE|DICT|INTERRES
    98   49  112 1    
    99   50   51 2    
   100   50   52 1    
   101   52   53 1    
   102   52   54 1    
   103   52  113 1    
   104   53  114 1    
   105   53  115 1    
   106   53  116 1    
   107   54   55 am   BACKBONE|DICT|INTERRES
   108   54  117 1    
   109   55   56 2    
   110   55   57 1    
   111   57   58 1    
   112   57   59 1    
   113   57  118 1    
   114   58  119 1    
   115   58  120 1    
   116   58  121 1    
   117   59   60 am   BACKBONE|DICT|INTERRES
   118   59  122 1    
   119   60   61 2    
   120   60   62 1    
   121   62   63 1    
   122   62   64 1    
   123   62  123 1    
   124   63  124 1    
   125   63  125 1    
   126   63  126 1    
   127   64   65 am   BACKBONE|DICT|INTERRES
   128   64  127 1    
   129   65   66 2    
@<TRIPOS>SUBSTRUCTURE
     1 UNK         1 GROUP             0       ****    0 ROOT    
