@<TRIPOS>MOLECULE
3R135
127   129    1
SMALL
USER_CHARGES


@<TRIPOS>ATOM
      1 CA        -84.8046   26.6977  -70.4862 C.3       0 UNK        -0.1998 
      2 C         -84.6139   26.7028  -71.9953 C.2       0 UNK         0.4909 
      3 O         -85.2552   25.9199  -72.6967 O.2       0 UNK        -0.5240 
      4 N         -83.7389   27.5823  -72.4999 N.am      1 UNK        -0.4739 
      5 CA        -83.3913   27.7118  -73.9214 C.3       1 UNK         0.0864 
      6 C6        -82.6736   29.0531  -74.2317 C.3       11 UNK        -0.0881 
      7 S7        -81.3376   29.4828  -73.0601 S.3       11 UNK        -0.2682 
      8 C8        -79.8542   29.0723  -74.0249 C.3       11 UNK         0.0289 
      9 C9        -78.6079   29.2133  -73.1669 C.ar      11 UNK        -0.0687 
     10 C10       -78.2369   28.1784  -72.3057 C.ar      11 UNK        -0.0823 
     11 C11       -77.1230   28.3101  -71.4708 C.ar      11 UNK        -0.0830 
     12 C12       -76.3683   29.4879  -71.5145 C.ar      11 UNK        -0.1021 
     13 C13       -76.7375   30.5371  -72.3645 C.ar      11 UNK        -0.0753 
     14 C14       -77.8529   30.3890  -73.1955 C.ar      11 UNK        -0.0933 
     15 C15       -75.9944   31.8662  -72.3254 C.3       11 UNK         0.0166 
     16 S16       -74.9870   32.1604  -73.8124 S.3       11 UNK        -0.2615 
     17 C17       -73.4850   31.1861  -73.4560 C.3       11 UNK        -0.0865 
     18 CA        -73.0906   30.2482  -74.6339 C.3       10 UNK         0.0862 
     19 C         -72.2411   30.9446  -75.7450 C.2       10 UNK         0.5551 
     20 N         -71.4030   30.2206  -76.4778 N.am      10 UNK        -0.7319 
     21 O         -72.3414   32.1506  -75.9583 O.2       10 UNK        -0.5018 
     22 N         -72.5416   28.9699  -74.1560 N.am      10 UNK        -0.4509 
     23 C         -71.3993   28.8182  -73.4727 C.2       10 UNK         0.4899 
     24 O         -70.6551   29.7471  -73.1581 O.2       10 UNK        -0.4839 
     25 CA        -71.0198   27.3910  -73.0619 C.3       9 UNK         0.0222 
     26 CB        -71.7129   27.0202  -71.7406 C.3       9 UNK        -0.1966 
     27 N         -71.3871   26.4145  -74.0908 N.am      9 UNK        -0.4218 
     28 C         -70.5116   25.7311  -74.8374 C.2       9 UNK         0.5020 
     29 O         -69.2901   25.8852  -74.7813 O.2       9 UNK        -0.5274 
     30 CA        -71.0801   24.6606  -75.7814 C.3       8 UNK         0.0270 
     31 CB        -71.3718   23.3675  -75.0021 C.3       8 UNK        -0.1976 
     32 N         -72.2774   25.0707  -76.5211 N.am      8 UNK        -0.4313 
     33 C         -72.2680   25.9400  -77.5423 C.2       8 UNK         0.5041 
     34 O         -71.2800   26.5974  -77.8720 O.2       8 UNK        -0.5577 
     35 CA        -73.5628   26.0687  -78.3631 C.3       7 UNK         0.0284 
     36 CB        -73.8635   24.7723  -79.1348 C.3       7 UNK        -0.1958 
     37 N         -74.7087   26.4203  -77.5300 N.am      7 UNK        -0.4454 
     38 C         -74.9502   27.6490  -77.0559 C.2       7 UNK         0.5089 
     39 O         -74.2948   28.6426  -77.3649 O.2       7 UNK        -0.5125 
     40 CA        -76.1081   27.7917  -76.0492 C.3       6 UNK         0.0408 
     41 CB        -77.4235   28.0595  -76.7944 C.3       6 UNK        -0.1791 
     42 N         -76.2600   26.6287  -75.1673 N.am      6 UNK        -0.4762 
     43 C         -75.3002   26.1563  -74.3562 C.2       6 UNK         0.5007 
     44 O         -74.1805   26.6590  -74.2566 O.2       6 UNK        -0.5032 
     45 CA        -75.6036   24.8549  -73.5898 C.3       5 UNK         0.0783 
     46 C46       -76.4178   25.0934  -72.2985 C.3       11 UNK        -0.0857 
     47 S47       -75.5099   26.0649  -71.0486 S.3       11 UNK        -0.2512 
     48 C48       -76.7893   27.2182  -70.4611 C.3       11 UNK         0.0225 
     49 N         -76.2568   23.8772  -74.4613 N.am      5 UNK        -0.4615 
     50 C         -75.6585   23.2573  -75.4871 C.2       4 UNK         0.5053 
     51 O         -74.4753   23.4119  -75.7852 O.2       4 UNK        -0.5105 
     52 CA        -76.5460   22.3547  -76.3582 C.3       4 UNK         0.0263 
     53 CB        -76.7469   20.9833  -75.6946 C.3       4 UNK        -0.1981 
     54 N         -77.8471   22.9651  -76.6418 N.am      4 UNK        -0.4224 
     55 C         -78.0112   24.0860  -77.3592 C.2       3 UNK         0.4895 
     56 O         -77.0889   24.6849  -77.9113 O.2       3 UNK        -0.5091 
     57 CA        -79.4367   24.6551  -77.4501 C.3       3 UNK         0.0250 
     58 CB        -80.1728   24.0669  -78.6641 C.3       3 UNK        -0.1996 
     59 N         -80.2449   24.4529  -76.2427 N.am      3 UNK        -0.4254 
     60 C         -79.9533   24.9338  -75.0258 C.2       2 UNK         0.5004 
     61 O         -78.9222   25.5547  -74.7597 O.2       2 UNK        -0.5226 
     62 CA        -80.9895   24.6741  -73.9180 C.3       2 UNK         0.0269 
     63 CB        -80.3124   24.1799  -72.6275 C.3       2 UNK        -0.1926 
     64 N         -81.7871   25.8648  -73.6132 N.am      2 UNK        -0.4687 
     65 C         -82.6096   26.4964  -74.4655 C.2       1 UNK         0.5165 
     66 O         -82.7928   26.1400  -75.6303 O.2       1 UNK        -0.5079 
     67 H67       -84.1808   27.4436  -69.9939 H         1 UNK         0.0900 
     68 H68       -84.5491   25.7198  -70.0792 H         1 UNK         0.0900 
     69 H69       -85.8446   26.9091  -70.2388 H         1 UNK         0.0900 
     70 H70       -83.2406   28.2080  -71.8814 H         1 UNK         0.2959 
     71 H71       -84.3331   27.7217  -74.4755 H         1 UNK         0.1079 
     72 H72       -82.2975   29.0750  -75.2568 H         1 UNK         0.0837 
     73 H73       -83.4060   29.8603  -74.1815 H         1 UNK         0.0837 
     74 H74       -79.9328   28.0505  -74.3963 H         1 UNK         0.0685 
     75 H75       -79.7949   29.7222  -74.8992 H         1 UNK         0.0685 
     76 H76       -78.8433   27.2847  -72.2668 H         1 UNK         0.1434 
     77 H77       -75.5190   29.6025  -70.8550 H         1 UNK         0.1329 
     78 H78       -78.1504   31.2036  -73.8415 H         1 UNK         0.1335 
     79 H79       -76.7247   32.6724  -72.2413 H         1 UNK         0.0680 
     80 H80       -75.3668   31.9396  -71.4358 H         1 UNK         0.0680 
     81 H81       -73.6718   30.5951  -72.5583 H         1 UNK         0.1032 
     82 H82       -72.6663   31.8592  -73.1950 H         1 UNK         0.1032 
     83 H83       -74.0129   29.9622  -75.1347 H         1 UNK         0.0461 
     84 H84       -70.8608   30.6688  -77.1986 H         1 UNK         0.3453 
     85 H85       -71.3440   29.2233  -76.3448 H         1 UNK         0.3453 
     86 H86       -73.1179   28.1509  -74.3320 H         1 UNK         0.2984 
     87 H87       -69.9422   27.3755  -72.8867 H         1 UNK         0.0554 
     88 H88       -71.4321   26.0198  -71.4115 H         1 UNK         0.0847 
     89 H89       -72.7988   27.0496  -71.8330 H         1 UNK         0.0847 
     90 H90       -71.4355   27.7138  -70.9458 H         1 UNK         0.0847 
     91 H91       -72.3836   26.2654  -74.2342 H         1 UNK         0.3141 
     92 H92       -70.3043   24.4328  -76.5158 H         1 UNK         0.0743 
     93 H93       -70.4819   23.0174  -74.4772 H         1 UNK         0.0784 
     94 H94       -72.1546   23.5128  -74.2565 H         1 UNK         0.0784 
     95 H95       -71.6906   22.5660  -75.6688 H         1 UNK         0.0784 
     96 H96       -73.1340   24.5600  -76.3114 H         1 UNK         0.3213 
     97 H97       -73.4126   26.8634  -79.0974 H         1 UNK         0.0855 
     98 H98       -73.0198   24.4883  -79.7651 H         1 UNK         0.0814 
     99 H99       -74.7289   24.8946  -79.7865 H         1 UNK         0.0814 
    100 H100      -74.0697   23.9355  -78.4668 H         1 UNK         0.0814 
    101 H101      -75.3576   25.6772  -77.2939 H         1 UNK         0.3105 
    102 H102      -75.9036   28.6496  -75.4067 H         1 UNK         0.0547 
    103 H103      -77.3935   29.0296  -77.2916 H         1 UNK         0.0837 
    104 H104      -77.6111   27.3103  -77.5625 H         1 UNK         0.0837 
    105 H105      -78.2754   28.0649  -76.1182 H         1 UNK         0.0837 
    106 H106      -77.1707   26.1746  -75.1545 H         1 UNK         0.3020 
    107 H107      -74.6402   24.4296  -73.2977 H         1 UNK         0.1245 
    108 H108      -76.6709   24.1364  -71.8397 H         1 UNK         0.0781 
    109 H109      -77.3680   25.5680  -72.5349 H         1 UNK         0.0781 
    110 H110      -76.4402   27.6784  -69.5355 H         1 UNK         0.0836 
    111 H111      -77.6860   26.6570  -70.1933 H         1 UNK         0.0836 
    112 H112      -77.2497   23.7524  -74.3310 H         1 UNK         0.3022 
    113 H113      -76.0309   22.2025  -77.3094 H         1 UNK         0.0747 
    114 H114      -77.3074   20.3083  -76.3417 H         1 UNK         0.0793 
    115 H115      -75.7872   20.5075  -75.4874 H         1 UNK         0.0793 
    116 H116      -77.2823   21.0628  -74.7476 H         1 UNK         0.0793 
    117 H117      -78.6622   22.5304  -76.2348 H         1 UNK         0.3047 
    118 H118      -79.3488   25.7323  -77.5995 H         1 UNK         0.0822 
    119 H119      -81.1461   24.5379  -78.8043 H         1 UNK         0.0807 
    120 H120      -80.3300   22.9925  -78.5615 H         1 UNK         0.0807 
    121 H121      -79.6032   24.2272  -79.5808 H         1 UNK         0.0807 
    122 H122      -81.1339   23.9916  -76.3745 H         1 UNK         0.2946 
    123 H123      -81.6722   23.8919  -74.2574 H         1 UNK         0.1144 
    124 H124      -79.6813   23.3118  -72.8222 H         1 UNK         0.0793 
    125 H125      -81.0512   23.8803  -71.8839 H         1 UNK         0.0793 
    126 H126      -79.6825   24.9480  -72.1791 H         1 UNK         0.0793 
    127 H127      -81.7025   26.2415  -72.6807 H         1 UNK         0.2896 
@<TRIPOS>BOND
     1    1    2 1    
     2    1   67 1    
     3    1   68 1    
     4    1   69 1    
     5    2    3 2    
     6    2    4 am   BACKBONE|DICT|INTERRES
     7    4    5 1    
     8    4   70 1    
     9    5    6 1    
    10    5   65 1    
    11    5   71 1    
    12    6    7 1    
    13    6   72 1    
    14    6   73 1    
    15    7    8 1    
    16    8    9 1    
    17    8   74 1    
    18    8   75 1    
    19    9   10 ar   
    20    9   14 ar   
    21   10   11 ar   
    22   10   76 1    
    23   11   12 ar   
    24   11   48 1    
    25   12   13 ar   
    26   12   77 1    
    27   13   14 ar   
    28   13   15 1    
    29   14   78 1    
    30   15   16 1    
    31   15   79 1    
    32   15   80 1    
    33   16   17 1    
    34   17   18 1    
    35   17   81 1    
    36   17   82 1    
    37   18   19 1    
    38   18   22 1    
    39   18   83 1    
    40   19   20 am   BACKBONE|DICT|INTERRES
    41   19   21 2    
    42   20   84 1    
    43   20   85 1    
    44   22   23 am   BACKBONE|DICT|INTERRES
    45   22   86 1    
    46   23   24 2    
    47   23   25 1    
    48   25   26 1    
    49   25   27 1    
    50   25   87 1    
    51   26   88 1    
    52   26   89 1    
    53   26   90 1    
    54   27   28 am   BACKBONE|DICT|INTERRES
    55   27   91 1    
    56   28   29 2    
    57   28   30 1    
    58   30   31 1    
    59   30   32 1    
    60   30   92 1    
    61   31   93 1    
    62   31   94 1    
    63   31   95 1    
    64   32   33 am   BACKBONE|DICT|INTERRES
    65   32   96 1    
    66   33   34 2    
    67   33   35 1    
    68   35   36 1    
    69   35   37 1    
    70   35   97 1    
    71   36   98 1    
    72   36   99 1    
    73   36  100 1    
    74   37   38 am   BACKBONE|DICT|INTERRES
    75   37  101 1    
    76   38   39 2    
    77   38   40 1    
    78   40   41 1    
    79   40   42 1    
    80   40  102 1    
    81   41  103 1    
    82   41  104 1    
    83   41  105 1    
    84   42   43 am   BACKBONE|DICT|INTERRES
    85   42  106 1    
    86   43   44 2    
    87   43   45 1    
    88   45   46 1    
    89   45   49 1    
    90   45  107 1    
    91   46   47 1    
    92   46  108 1    
    93   46  109 1    
    94   47   48 1    
    95   48  110 1    
    96   48  111 1    
    97   49   50 am   BACKBONE|DICT|INTERRES
    98   49  112 1    
    99   50   51 2    
   100   50   52 1    
   101   52   53 1    
   102   52   54 1    
   103   52  113 1    
   104   53  114 1    
   105   53  115 1    
   106   53  116 1    
   107   54   55 am   BACKBONE|DICT|INTERRES
   108   54  117 1    
   109   55   56 2    
   110   55   57 1    
   111   57   58 1    
   112   57   59 1    
   113   57  118 1    
   114   58  119 1    
   115   58  120 1    
   116   58  121 1    
   117   59   60 am   BACKBONE|DICT|INTERRES
   118   59  122 1    
   119   60   61 2    
   120   60   62 1    
   121   62   63 1    
   122   62   64 1    
   123   62  123 1    
   124   63  124 1    
   125   63  125 1    
   126   63  126 1    
   127   64   65 am   BACKBONE|DICT|INTERRES
   128   64  127 1    
   129   65   66 2    
@<TRIPOS>SUBSTRUCTURE
     1 UNK         1 GROUP             0       ****    0 ROOT    
