@<TRIPOS>MOLECULE
3R135
127   129    1
SMALL
USER_CHARGES


@<TRIPOS>ATOM
      1 CA        -81.5109   23.3706  -72.2181 C.3       0 UNK        -0.1998 
      2 C         -80.5374   24.1025  -71.2968 C.2       0 UNK         0.4909 
      3 O         -79.8525   23.4491  -70.5126 O.2       0 UNK        -0.5240 
      4 N         -80.4410   25.4395  -71.3315 N.am      1 UNK        -0.4739 
      5 CA        -81.1163   26.3810  -72.2345 C.3       1 UNK         0.0864 
      6 C6        -80.7622   27.8494  -71.8910 C.3       11 UNK        -0.0881 
      7 S7        -80.9427   28.3222  -70.1390 S.3       11 UNK        -0.2682 
      8 C8        -80.5189   30.0995  -70.2079 C.3       11 UNK         0.0289 
      9 C9        -79.2383   30.3695  -70.9919 C.ar      11 UNK        -0.0687 
     10 C10       -79.3098   30.7785  -72.3278 C.ar      11 UNK        -0.0823 
     11 C11       -78.1484   30.9798  -73.0795 C.ar      11 UNK        -0.0830 
     12 C12       -76.9017   30.7972  -72.4698 C.ar      11 UNK        -0.1021 
     13 C13       -76.8149   30.3924  -71.1328 C.ar      11 UNK        -0.0753 
     14 C14       -77.9869   30.1844  -70.3978 C.ar      11 UNK        -0.0933 
     15 C15       -75.4548   30.1870  -70.4782 C.3       11 UNK         0.0166 
     16 S16       -75.1025   28.4310  -70.1381 S.3       11 UNK        -0.2615 
     17 C17       -74.9357   27.7468  -71.8209 C.3       11 UNK        -0.0865 
     18 CA        -73.4543   27.5737  -72.2743 C.3       10 UNK         0.0862 
     19 C         -72.8939   26.1484  -72.0005 C.2       10 UNK         0.5551 
     20 N         -72.2717   25.4621  -72.9503 N.am      10 UNK        -0.7319 
     21 O         -73.0006   25.6546  -70.8809 O.2       10 UNK        -0.5018 
     22 N         -73.2656   28.0640  -73.6493 N.am      10 UNK        -0.4509 
     23 C         -73.0240   29.3481  -73.9483 C.2       10 UNK         0.4899 
     24 O         -72.8035   30.2130  -73.0988 O.2       10 UNK        -0.4839 
     25 CA        -73.0969   29.7601  -75.4307 C.3       9 UNK         0.0222 
     26 CB        -72.4977   31.1581  -75.7010 C.3       9 UNK        -0.1966 
     27 N         -72.5560   28.7686  -76.3661 N.am      9 UNK        -0.4218 
     28 C         -71.2806   28.3664  -76.4635 C.2       9 UNK         0.5020 
     29 O         -70.3877   28.7210  -75.6907 O.2       9 UNK        -0.5274 
     30 CA        -70.9443   27.4457  -77.6556 C.3       8 UNK         0.0270 
     31 CB        -69.4990   26.9035  -77.6058 C.3       8 UNK        -0.1976 
     32 N         -71.8949   26.3439  -77.8481 N.am      8 UNK        -0.4313 
     33 C         -72.2062   25.3797  -76.9720 C.2       8 UNK         0.5041 
     34 O         -71.7819   25.3437  -75.8158 O.2       8 UNK        -0.5577 
     35 CA        -73.1463   24.2728  -77.4920 C.3       7 UNK         0.0284 
     36 CB        -73.3269   23.1244  -76.4822 C.3       7 UNK        -0.1958 
     37 N         -74.4602   24.8097  -77.8503 N.am      7 UNK        -0.4454 
     38 C         -74.7473   25.4721  -78.9790 C.2       7 UNK         0.5089 
     39 O         -73.9316   25.6531  -79.8844 O.2       7 UNK        -0.5125 
     40 CA        -76.1558   26.0864  -79.0943 C.3       6 UNK         0.0408 
     41 CB        -77.1396   25.0736  -79.6991 C.3       6 UNK        -0.1791 
     42 N         -76.6738   26.5791  -77.8130 N.am      6 UNK        -0.4762 
     43 C         -76.1022   27.5592  -77.0947 C.2       6 UNK         0.5007 
     44 O         -75.1328   28.2059  -77.4931 O.2       6 UNK        -0.5032 
     45 CA        -76.6410   27.7989  -75.6662 C.3       5 UNK         0.0783 
     46 C46       -77.8075   28.8163  -75.6233 C.3       11 UNK        -0.0857 
     47 S47       -77.1763   30.5292  -75.6923 S.3       11 UNK        -0.2512 
     48 C48       -78.2657   31.4271  -74.5350 C.3       11 UNK         0.0225 
     49 N         -76.9672   26.5368  -74.9999 N.am      5 UNK        -0.4615 
     50 C         -76.0573   25.6167  -74.6557 C.2       4 UNK         0.5053 
     51 O         -74.8490   25.7866  -74.7941 O.2       4 UNK        -0.5105 
     52 CA        -76.5740   24.2803  -74.1034 C.3       4 UNK         0.0263 
     53 CB        -76.8055   24.3578  -72.5864 C.3       4 UNK        -0.1981 
     54 N         -77.8101   23.8699  -74.7691 N.am      4 UNK        -0.4224 
     55 C         -77.8616   23.2766  -75.9688 C.2       3 UNK         0.4895 
     56 O         -76.8641   22.9811  -76.6262 O.2       3 UNK        -0.5091 
     57 CA        -79.2584   22.9686  -76.5406 C.3       3 UNK         0.0250 
     58 CB        -79.7282   21.5779  -76.0848 C.3       3 UNK        -0.1996 
     59 N         -80.2763   23.9646  -76.1893 N.am      3 UNK        -0.4254 
     60 C         -80.2730   25.2320  -76.6246 C.2       2 UNK         0.5004 
     61 O         -79.4089   25.6994  -77.3656 O.2       2 UNK        -0.5226 
     62 CA        -81.3887   26.1529  -76.0950 C.3       2 UNK         0.0269 
     63 CB        -82.7060   25.8878  -76.8420 C.3       2 UNK        -0.1926 
     64 N         -81.6290   26.1074  -74.6416 N.am      2 UNK        -0.4687 
     65 C         -80.6820   26.1474  -73.6930 C.2       1 UNK         0.5165 
     66 O         -79.4781   26.0605  -73.9274 O.2       1 UNK        -0.5079 
     67 H67       -81.7875   22.4104  -71.7828 H         1 UNK         0.0900 
     68 H68       -81.0460   23.1746  -73.1831 H         1 UNK         0.0900 
     69 H69       -82.4321   23.9294  -72.3744 H         1 UNK         0.0900 
     70 H70       -79.7952   25.8809  -70.6931 H         1 UNK         0.2959 
     71 H71       -82.1951   26.2472  -72.1384 H         1 UNK         0.1079 
     72 H72       -79.7200   28.0405  -72.1572 H         1 UNK         0.0837 
     73 H73       -81.3651   28.5335  -72.4920 H         1 UNK         0.0837 
     74 H74       -80.4139   30.4785  -69.1903 H         1 UNK         0.0685 
     75 H75       -81.3546   30.6445  -70.6496 H         1 UNK         0.0685 
     76 H76       -80.2778   30.9231  -72.7879 H         1 UNK         0.1434 
     77 H77       -75.9972   30.9646  -73.0390 H         1 UNK         0.1329 
     78 H78       -77.9240   29.8607  -69.3678 H         1 UNK         0.1335 
     79 H79       -75.4255   30.7389  -69.5378 H         1 UNK         0.0680 
     80 H80       -74.6568   30.5988  -71.0979 H         1 UNK         0.0680 
     81 H81       -75.4722   26.7997  -71.8539 H         1 UNK         0.1032 
     82 H82       -75.4826   28.3886  -72.5110 H         1 UNK         0.1032 
     83 H83       -72.8283   28.1975  -71.6336 H         1 UNK         0.0461 
     84 H84       -72.1961   25.7841  -73.9093 H         1 UNK         0.3453 
     85 H85       -71.9154   24.5490  -72.7223 H         1 UNK         0.3453 
     86 H86       -73.4399   27.3847  -74.3818 H         1 UNK         0.2984 
     87 H87       -74.1594   29.8351  -75.6572 H         1 UNK         0.0554 
     88 H88       -72.5948   31.4357  -76.7504 H         1 UNK         0.0847 
     89 H89       -71.4410   31.2056  -75.4360 H         1 UNK         0.0847 
     90 H90       -73.0122   31.9235  -75.1186 H         1 UNK         0.0847 
     91 H91       -73.2392   28.3951  -77.0203 H         1 UNK         0.3141 
     92 H92       -71.0250   28.0716  -78.5455 H         1 UNK         0.0743 
     93 H93       -68.7747   27.7188  -77.5841 H         1 UNK         0.0784 
     94 H94       -69.3278   26.2926  -76.7186 H         1 UNK         0.0784 
     95 H95       -69.2724   26.2948  -78.4811 H         1 UNK         0.0784 
     96 H96       -72.3512   26.2980  -78.7548 H         1 UNK         0.3213 
     97 H97       -72.6850   23.8498  -78.3872 H         1 UNK         0.0855 
     98 H98       -73.7448   23.4761  -75.5395 H         1 UNK         0.0814 
     99 H99       -72.3697   22.6537  -76.2548 H         1 UNK         0.0814 
    100 H100      -73.9867   22.3497  -76.8730 H         1 UNK         0.0814 
    101 H101      -75.1823   24.7274  -77.1472 H         1 UNK         0.3105 
    102 H102      -76.0888   26.9394  -79.7727 H         1 UNK         0.0547 
    103 H103      -78.1196   25.5220  -79.8629 H         1 UNK         0.0837 
    104 H104      -76.7836   24.7118  -80.6646 H         1 UNK         0.0837 
    105 H105      -77.2732   24.2050  -79.0542 H         1 UNK         0.0837 
    106 H106      -77.5179   26.1351  -77.4591 H         1 UNK         0.3020 
    107 H107      -75.8164   28.2224  -75.0910 H         1 UNK         0.1245 
    108 H108      -78.3702   28.6959  -74.6960 H         1 UNK         0.0781 
    109 H109      -78.5216   28.6492  -76.4320 H         1 UNK         0.0781 
    110 H110      -79.2933   31.3296  -74.8889 H         1 UNK         0.0836 
    111 H111      -78.0247   32.4894  -74.5877 H         1 UNK         0.0836 
    112 H112      -77.9473   26.3567  -74.7898 H         1 UNK         0.3022 
    113 H113      -75.8110   23.5209  -74.2856 H         1 UNK         0.0747 
    114 H114      -77.2361   23.4328  -72.2024 H         1 UNK         0.0793 
    115 H115      -75.8632   24.5128  -72.0602 H         1 UNK         0.0793 
    116 H116      -77.4758   25.1745  -72.3153 H         1 UNK         0.0793 
    117 H117      -78.6724   24.1870  -74.3448 H         1 UNK         0.3047 
    118 H118      -79.1675   22.9565  -77.6291 H         1 UNK         0.0822 
    119 H119      -79.0014   20.8121  -76.3601 H         1 UNK         0.0807 
    120 H120      -80.6747   21.3052  -76.5519 H         1 UNK         0.0807 
    121 H121      -79.8591   21.5279  -75.0031 H         1 UNK         0.0807 
    122 H122      -81.0265   23.6665  -75.5838 H         1 UNK         0.2946 
    123 H123      -81.0761   27.1739  -76.3251 H         1 UNK         0.1144 
    124 H124      -82.5578   25.9230  -77.9225 H         1 UNK         0.0793 
    125 H125      -83.4589   26.6375  -76.5981 H         1 UNK         0.0793 
    126 H126      -83.1184   24.9073  -76.6011 H         1 UNK         0.0793 
    127 H127      -82.5956   26.1845  -74.3579 H         1 UNK         0.2896 
@<TRIPOS>BOND
     1    1    2 1    
     2    1   67 1    
     3    1   68 1    
     4    1   69 1    
     5    2    3 2    
     6    2    4 am   BACKBONE|DICT|INTERRES
     7    4    5 1    
     8    4   70 1    
     9    5    6 1    
    10    5   65 1    
    11    5   71 1    
    12    6    7 1    
    13    6   72 1    
    14    6   73 1    
    15    7    8 1    
    16    8    9 1    
    17    8   74 1    
    18    8   75 1    
    19    9   10 ar   
    20    9   14 ar   
    21   10   11 ar   
    22   10   76 1    
    23   11   12 ar   
    24   11   48 1    
    25   12   13 ar   
    26   12   77 1    
    27   13   14 ar   
    28   13   15 1    
    29   14   78 1    
    30   15   16 1    
    31   15   79 1    
    32   15   80 1    
    33   16   17 1    
    34   17   18 1    
    35   17   81 1    
    36   17   82 1    
    37   18   19 1    
    38   18   22 1    
    39   18   83 1    
    40   19   20 am   BACKBONE|DICT|INTERRES
    41   19   21 2    
    42   20   84 1    
    43   20   85 1    
    44   22   23 am   BACKBONE|DICT|INTERRES
    45   22   86 1    
    46   23   24 2    
    47   23   25 1    
    48   25   26 1    
    49   25   27 1    
    50   25   87 1    
    51   26   88 1    
    52   26   89 1    
    53   26   90 1    
    54   27   28 am   BACKBONE|DICT|INTERRES
    55   27   91 1    
    56   28   29 2    
    57   28   30 1    
    58   30   31 1    
    59   30   32 1    
    60   30   92 1    
    61   31   93 1    
    62   31   94 1    
    63   31   95 1    
    64   32   33 am   BACKBONE|DICT|INTERRES
    65   32   96 1    
    66   33   34 2    
    67   33   35 1    
    68   35   36 1    
    69   35   37 1    
    70   35   97 1    
    71   36   98 1    
    72   36   99 1    
    73   36  100 1    
    74   37   38 am   BACKBONE|DICT|INTERRES
    75   37  101 1    
    76   38   39 2    
    77   38   40 1    
    78   40   41 1    
    79   40   42 1    
    80   40  102 1    
    81   41  103 1    
    82   41  104 1    
    83   41  105 1    
    84   42   43 am   BACKBONE|DICT|INTERRES
    85   42  106 1    
    86   43   44 2    
    87   43   45 1    
    88   45   46 1    
    89   45   49 1    
    90   45  107 1    
    91   46   47 1    
    92   46  108 1    
    93   46  109 1    
    94   47   48 1    
    95   48  110 1    
    96   48  111 1    
    97   49   50 am   BACKBONE|DICT|INTERRES
    98   49  112 1    
    99   50   51 2    
   100   50   52 1    
   101   52   53 1    
   102   52   54 1    
   103   52  113 1    
   104   53  114 1    
   105   53  115 1    
   106   53  116 1    
   107   54   55 am   BACKBONE|DICT|INTERRES
   108   54  117 1    
   109   55   56 2    
   110   55   57 1    
   111   57   58 1    
   112   57   59 1    
   113   57  118 1    
   114   58  119 1    
   115   58  120 1    
   116   58  121 1    
   117   59   60 am   BACKBONE|DICT|INTERRES
   118   59  122 1    
   119   60   61 2    
   120   60   62 1    
   121   62   63 1    
   122   62   64 1    
   123   62  123 1    
   124   63  124 1    
   125   63  125 1    
   126   63  126 1    
   127   64   65 am   BACKBONE|DICT|INTERRES
   128   64  127 1    
   129   65   66 2    
@<TRIPOS>SUBSTRUCTURE
     1 UNK         1 GROUP             0       ****    0 ROOT    
