@<TRIPOS>MOLECULE
3R135
127   129    1
SMALL
USER_CHARGES


@<TRIPOS>ATOM
      1 CA        -83.2055   24.9310  -71.2923 C.3       0 UNK        -0.1998 
      2 C         -83.3463   25.5586  -72.6708 C.2       0 UNK         0.4909 
      3 O         -83.7142   24.8702  -73.6233 O.2       0 UNK        -0.5240 
      4 N         -83.0617   26.8621  -72.7823 N.am      1 UNK        -0.4739 
      5 CA        -83.0137   27.6151  -74.0397 C.3       1 UNK         0.0864 
      6 C6        -82.9325   29.1526  -73.8072 C.3       11 UNK        -0.0881 
      7 S7        -81.8332   29.6870  -72.4418 S.3       11 UNK        -0.2682 
      8 C8        -80.2392   29.9446  -73.2948 C.3       11 UNK         0.0289 
      9 C9        -79.0482   29.4088  -72.5024 C.ar      11 UNK        -0.0687 
     10 C10       -79.0972   28.1539  -71.8836 C.ar      11 UNK        -0.0823 
     11 C11       -78.0013   27.6631  -71.1687 C.ar      11 UNK        -0.0830 
     12 C12       -76.8276   28.4198  -71.1065 C.ar      11 UNK        -0.1021 
     13 C13       -76.7538   29.6652  -71.7383 C.ar      11 UNK        -0.0753 
     14 C14       -77.8709   30.1585  -72.4217 C.ar      11 UNK        -0.0933 
     15 C15       -75.4723   30.4844  -71.6798 C.3       11 UNK         0.0166 
     16 S16       -74.7303   30.6547  -73.3304 S.3       11 UNK        -0.2615 
     17 C17       -73.2306   31.6346  -72.9711 C.3       11 UNK        -0.0865 
     18 CA        -71.9022   30.9172  -73.3429 C.3       10 UNK         0.0862 
     19 C         -71.4653   29.8443  -72.3041 C.2       10 UNK         0.5551 
     20 N         -71.2368   30.2474  -71.0608 N.am      10 UNK        -0.7319 
     21 O         -71.3174   28.6611  -72.6030 O.2       10 UNK        -0.5018 
     22 N         -71.9551   30.3986  -74.7152 N.am      10 UNK        -0.4509 
     23 C         -70.9197   30.2826  -75.5498 C.2       10 UNK         0.4899 
     24 O         -69.7761   30.6667  -75.2971 O.2       10 UNK        -0.4839 
     25 CA        -71.2499   29.6233  -76.8979 C.3       9 UNK         0.0222 
     26 CB        -70.1747   29.8636  -77.9803 C.3       9 UNK        -0.1966 
     27 N         -71.5512   28.1976  -76.7305 N.am      9 UNK        -0.4218 
     28 C         -70.7072   27.2115  -76.3805 C.2       9 UNK         0.5020 
     29 O         -69.5070   27.3810  -76.1599 O.2       9 UNK        -0.5274 
     30 CA        -71.2717   25.7782  -76.2585 C.3       8 UNK         0.0270 
     31 CB        -71.2093   25.2997  -74.7978 C.3       8 UNK        -0.1976 
     32 N         -72.6423   25.6123  -76.7491 N.am      8 UNK        -0.4313 
     33 C         -73.0484   25.7433  -78.0194 C.2       8 UNK         0.5041 
     34 O         -72.2826   25.9183  -78.9677 O.2       8 UNK        -0.5577 
     35 CA        -74.5683   25.7255  -78.2723 C.3       7 UNK         0.0284 
     36 CB        -75.0161   24.3367  -78.7513 C.3       7 UNK        -0.1958 
     37 N         -75.3740   26.1277  -77.1115 N.am      7 UNK        -0.4454 
     38 C         -75.3171   27.3242  -76.5040 C.2       7 UNK         0.5089 
     39 O         -74.5570   28.2323  -76.8443 O.2       7 UNK        -0.5125 
     40 CA        -76.2282   27.5142  -75.2837 C.3       6 UNK         0.0408 
     41 CB        -77.6718   27.8028  -75.7162 C.3       6 UNK        -0.1791 
     42 N         -76.1933   26.3349  -74.4199 N.am      6 UNK        -0.4762 
     43 C         -75.2143   26.0801  -73.5399 C.2       6 UNK         0.5007 
     44 O         -74.2822   26.8503  -73.3155 O.2       6 UNK        -0.5032 
     45 CA        -75.2459   24.7188  -72.8138 C.3       5 UNK         0.0783 
     46 C46       -75.9376   24.8098  -71.4312 C.3       11 UNK        -0.0857 
     47 S47       -77.7617   24.9135  -71.5140 S.3       11 UNK        -0.2512 
     48 C48       -78.1121   26.3348  -70.4343 C.3       11 UNK         0.0225 
     49 N         -75.8027   23.6398  -73.6349 N.am      5 UNK        -0.4615 
     50 C         -75.2479   23.1578  -74.7536 C.2       4 UNK         0.5053 
     51 O         -74.1685   23.5425  -75.2004 O.2       4 UNK        -0.5105 
     52 CA        -76.0528   22.0958  -75.5265 C.3       4 UNK         0.0263 
     53 CB        -75.6898   20.6873  -75.0306 C.3       4 UNK        -0.1981 
     54 N         -77.5095   22.2753  -75.4644 N.am      4 UNK        -0.4224 
     55 C         -78.1711   23.3854  -75.8228 C.2       3 UNK         0.4895 
     56 O         -77.6102   24.4014  -76.2443 O.2       3 UNK        -0.5091 
     57 CA        -79.7005   23.3529  -75.6485 C.3       3 UNK         0.0250 
     58 CB        -80.0998   23.0225  -74.1979 C.3       3 UNK        -0.1996 
     59 N         -80.2809   24.6492  -75.9835 N.am      3 UNK        -0.4254 
     60 C         -80.7487   25.0355  -77.1725 C.2       2 UNK         0.5004 
     61 O         -80.8386   24.2838  -78.1456 O.2       2 UNK        -0.5226 
     62 CA        -81.1949   26.5135  -77.2833 C.3       2 UNK         0.0269 
     63 CB        -81.7952   26.8464  -78.6625 C.3       2 UNK        -0.1926 
     64 N         -82.1438   26.9392  -76.2430 N.am      2 UNK        -0.4687 
     65 C         -81.8684   27.1098  -74.9415 C.2       1 UNK         0.5165 
     66 O         -80.7595   26.8926  -74.4498 O.2       1 UNK        -0.5079 
     67 H67       -82.4630   24.1338  -71.3194 H         1 UNK         0.0900 
     68 H68       -84.1559   24.5026  -70.9752 H         1 UNK         0.0900 
     69 H69       -82.8940   25.6588  -70.5432 H         1 UNK         0.0900 
     70 H70       -82.7466   27.3786  -71.9731 H         1 UNK         0.2959 
     71 H71       -83.9505   27.4124  -74.5640 H         1 UNK         0.1079 
     72 H72       -82.6687   29.6839  -74.7241 H         1 UNK         0.0837 
     73 H73       -83.9304   29.5131  -73.5530 H         1 UNK         0.0837 
     74 H74       -80.1256   31.0134  -73.4814 H         1 UNK         0.0685 
     75 H75       -80.2449   29.4665  -74.2734 H         1 UNK         0.0685 
     76 H76       -79.9959   27.5568  -71.9537 H         1 UNK         0.1434 
     77 H77       -75.9721   28.0414  -70.5645 H         1 UNK         0.1329 
     78 H78       -77.8112   31.1221  -72.9089 H         1 UNK         0.1335 
     79 H79       -75.6930   31.4732  -71.2752 H         1 UNK         0.0680 
     80 H80       -74.7459   30.0225  -71.0089 H         1 UNK         0.0680 
     81 H81       -73.3058   32.5560  -73.5505 H         1 UNK         0.1032 
     82 H82       -73.2301   31.9572  -71.9288 H         1 UNK         0.1032 
     83 H83       -71.1191   31.6776  -73.3153 H         1 UNK         0.0461 
     84 H84       -70.9484   29.5675  -70.3749 H         1 UNK         0.3453 
     85 H85       -71.3262   31.2158  -70.7967 H         1 UNK         0.3453 
     86 H86       -72.8479   30.0102  -74.9864 H         1 UNK         0.2984 
     87 H87       -72.1715   30.0838  -77.2581 H         1 UNK         0.0554 
     88 H88       -70.4534   29.3978  -78.9255 H         1 UNK         0.0847 
     89 H89       -69.1992   29.4735  -77.6894 H         1 UNK         0.0847 
     90 H90       -70.0492   30.9305  -78.1680 H         1 UNK         0.0847 
     91 H91       -72.5311   27.9573  -76.8467 H         1 UNK         0.3141 
     92 H92       -70.6287   25.1305  -76.8577 H         1 UNK         0.0743 
     93 H93       -70.1910   25.3527  -74.4105 H         1 UNK         0.0784 
     94 H94       -71.8348   25.9136  -74.1483 H         1 UNK         0.0784 
     95 H95       -71.5367   24.2643  -74.7020 H         1 UNK         0.0784 
     96 H96       -73.3419   25.3688  -76.0573 H         1 UNK         0.3213 
     97 H97       -74.7737   26.4441  -79.0684 H         1 UNK         0.0855 
     98 H98       -74.7415   23.5626  -78.0363 H         1 UNK         0.0814 
     99 H99       -74.5398   24.0825  -79.6991 H         1 UNK         0.0814 
    100 H100      -76.0944   24.2911  -78.9057 H         1 UNK         0.0814 
    101 H101      -76.0545   25.4534  -76.7694 H         1 UNK         0.3105 
    102 H102      -75.8723   28.3762  -74.7185 H         1 UNK         0.0547 
    103 H103      -78.0835   26.9960  -76.3210 H         1 UNK         0.0837 
    104 H104      -78.3188   27.9342  -74.8504 H         1 UNK         0.0837 
    105 H105      -77.7267   28.7182  -76.3062 H         1 UNK         0.0837 
    106 H106      -76.8982   25.6278  -74.5862 H         1 UNK         0.3020 
    107 H107      -74.1994   24.4616  -72.6315 H         1 UNK         0.1245 
    108 H108      -75.5347   25.6466  -70.8583 H         1 UNK         0.0781 
    109 H109      -75.6920   23.9199  -70.8498 H         1 UNK         0.0781 
    110 H110      -77.4537   26.3164  -69.5645 H         1 UNK         0.0836 
    111 H111      -79.1239   26.2253  -70.0409 H         1 UNK         0.0836 
    112 H112      -76.6994   23.2812  -73.3409 H         1 UNK         0.3022 
    113 H113      -75.7666   22.1654  -76.5761 H         1 UNK         0.0747 
    114 H114      -76.1674   19.9167  -75.6361 H         1 UNK         0.0793 
    115 H115      -74.6132   20.5193  -75.0881 H         1 UNK         0.0793 
    116 H116      -75.9885   20.5340  -73.9928 H         1 UNK         0.0793 
    117 H117      -78.0423   21.4842  -75.1324 H         1 UNK         0.3047 
    118 H118      -80.1024   22.5854  -76.3131 H         1 UNK         0.0822 
    119 H119      -79.7596   22.0316  -73.8963 H         1 UNK         0.0807 
    120 H120      -81.1837   23.0350  -74.0779 H         1 UNK         0.0807 
    121 H121      -79.6853   23.7437  -73.4929 H         1 UNK         0.0807 
    122 H122      -80.2471   25.3609  -75.2561 H         1 UNK         0.2946 
    123 H123      -80.2909   27.1147  -77.1714 H         1 UNK         0.1144 
    124 H124      -81.0938   26.6085  -79.4635 H         1 UNK         0.0793 
    125 H125      -82.0300   27.9075  -78.7490 H         1 UNK         0.0793 
    126 H126      -82.7095   26.2823  -78.8507 H         1 UNK         0.0793 
    127 H127      -83.0888   27.1063  -76.5581 H         1 UNK         0.2896 
@<TRIPOS>BOND
     1    1    2 1    
     2    1   67 1    
     3    1   68 1    
     4    1   69 1    
     5    2    3 2    
     6    2    4 am   BACKBONE|DICT|INTERRES
     7    4    5 1    
     8    4   70 1    
     9    5    6 1    
    10    5   65 1    
    11    5   71 1    
    12    6    7 1    
    13    6   72 1    
    14    6   73 1    
    15    7    8 1    
    16    8    9 1    
    17    8   74 1    
    18    8   75 1    
    19    9   10 ar   
    20    9   14 ar   
    21   10   11 ar   
    22   10   76 1    
    23   11   12 ar   
    24   11   48 1    
    25   12   13 ar   
    26   12   77 1    
    27   13   14 ar   
    28   13   15 1    
    29   14   78 1    
    30   15   16 1    
    31   15   79 1    
    32   15   80 1    
    33   16   17 1    
    34   17   18 1    
    35   17   81 1    
    36   17   82 1    
    37   18   19 1    
    38   18   22 1    
    39   18   83 1    
    40   19   20 am   BACKBONE|DICT|INTERRES
    41   19   21 2    
    42   20   84 1    
    43   20   85 1    
    44   22   23 am   BACKBONE|DICT|INTERRES
    45   22   86 1    
    46   23   24 2    
    47   23   25 1    
    48   25   26 1    
    49   25   27 1    
    50   25   87 1    
    51   26   88 1    
    52   26   89 1    
    53   26   90 1    
    54   27   28 am   BACKBONE|DICT|INTERRES
    55   27   91 1    
    56   28   29 2    
    57   28   30 1    
    58   30   31 1    
    59   30   32 1    
    60   30   92 1    
    61   31   93 1    
    62   31   94 1    
    63   31   95 1    
    64   32   33 am   BACKBONE|DICT|INTERRES
    65   32   96 1    
    66   33   34 2    
    67   33   35 1    
    68   35   36 1    
    69   35   37 1    
    70   35   97 1    
    71   36   98 1    
    72   36   99 1    
    73   36  100 1    
    74   37   38 am   BACKBONE|DICT|INTERRES
    75   37  101 1    
    76   38   39 2    
    77   38   40 1    
    78   40   41 1    
    79   40   42 1    
    80   40  102 1    
    81   41  103 1    
    82   41  104 1    
    83   41  105 1    
    84   42   43 am   BACKBONE|DICT|INTERRES
    85   42  106 1    
    86   43   44 2    
    87   43   45 1    
    88   45   46 1    
    89   45   49 1    
    90   45  107 1    
    91   46   47 1    
    92   46  108 1    
    93   46  109 1    
    94   47   48 1    
    95   48  110 1    
    96   48  111 1    
    97   49   50 am   BACKBONE|DICT|INTERRES
    98   49  112 1    
    99   50   51 2    
   100   50   52 1    
   101   52   53 1    
   102   52   54 1    
   103   52  113 1    
   104   53  114 1    
   105   53  115 1    
   106   53  116 1    
   107   54   55 am   BACKBONE|DICT|INTERRES
   108   54  117 1    
   109   55   56 2    
   110   55   57 1    
   111   57   58 1    
   112   57   59 1    
   113   57  118 1    
   114   58  119 1    
   115   58  120 1    
   116   58  121 1    
   117   59   60 am   BACKBONE|DICT|INTERRES
   118   59  122 1    
   119   60   61 2    
   120   60   62 1    
   121   62   63 1    
   122   62   64 1    
   123   62  123 1    
   124   63  124 1    
   125   63  125 1    
   126   63  126 1    
   127   64   65 am   BACKBONE|DICT|INTERRES
   128   64  127 1    
   129   65   66 2    
@<TRIPOS>SUBSTRUCTURE
     1 UNK         1 GROUP             0       ****    0 ROOT    
