@<TRIPOS>MOLECULE
3R135
127   129    1
SMALL
USER_CHARGES


@<TRIPOS>ATOM
      1 CA        -82.1601   27.8085  -69.8564 C.3       0 UNK        -0.1998 
      2 C         -82.9433   27.4485  -71.1101 C.2       0 UNK         0.4909 
      3 O         -83.9122   26.6930  -71.0332 O.2       0 UNK        -0.5240 
      4 N         -82.5284   27.9832  -72.2661 N.am      1 UNK        -0.4739 
      5 CA        -83.1369   27.7362  -73.5800 C.3       1 UNK         0.0864 
      6 C6        -82.7770   28.8575  -74.5926 C.3       11 UNK        -0.0881 
      7 S7        -81.0125   28.9172  -75.0675 S.3       11 UNK        -0.2682 
      8 C8        -80.3308   30.1431  -73.9083 C.3       11 UNK         0.0289 
      9 C9        -78.9572   29.7068  -73.4228 C.ar      11 UNK        -0.0687 
     10 C10       -78.8459   28.6909  -72.4701 C.ar      11 UNK        -0.0823 
     11 C11       -77.5936   28.2598  -72.0292 C.ar      11 UNK        -0.0830 
     12 C12       -76.4397   28.8594  -72.5415 C.ar      11 UNK        -0.1021 
     13 C13       -76.5366   29.8741  -73.4993 C.ar      11 UNK        -0.0753 
     14 C14       -77.7977   30.2972  -73.9331 C.ar      11 UNK        -0.0933 
     15 C15       -75.2827   30.4775  -74.1111 C.3       11 UNK         0.0166 
     16 S16       -74.6615   31.8892  -73.1456 S.3       11 UNK        -0.2615 
     17 C17       -73.4177   31.1040  -72.0592 C.3       11 UNK        -0.0865 
     18 CA        -71.9639   31.3586  -72.5594 C.3       10 UNK         0.0862 
     19 C         -70.8768   31.0131  -71.4942 C.2       10 UNK         0.5551 
     20 N         -69.6725   30.6196  -71.8898 N.am      10 UNK        -0.7319 
     21 O         -71.1114   31.1384  -70.2945 O.2       10 UNK        -0.5018 
     22 N         -71.7327   30.8004  -73.9066 N.am      10 UNK        -0.4509 
     23 C         -71.6891   29.4996  -74.2264 C.2       10 UNK         0.4899 
     24 O         -71.7255   28.5885  -73.3972 O.2       10 UNK        -0.4839 
     25 CA        -71.6562   29.1943  -75.7360 C.3       9 UNK         0.0222 
     26 CB        -70.4277   29.8126  -76.4396 C.3       9 UNK        -0.1966 
     27 N         -71.7952   27.7636  -76.0319 N.am      9 UNK        -0.4218 
     28 C         -70.8957   26.7808  -75.8687 C.2       9 UNK         0.5020 
     29 O         -69.7341   26.9568  -75.4966 O.2       9 UNK        -0.5274 
     30 CA        -71.3583   25.3399  -76.1720 C.3       8 UNK         0.0270 
     31 CB        -71.5076   24.5444  -74.8653 C.3       8 UNK        -0.1976 
     32 N         -72.6094   25.2577  -76.9358 N.am      8 UNK        -0.4313 
     33 C         -72.7340   25.5878  -78.2294 C.2       8 UNK         0.5041 
     34 O         -71.7917   25.9450  -78.9374 O.2       8 UNK        -0.5577 
     35 CA        -74.1477   25.5346  -78.8338 C.3       7 UNK         0.0284 
     36 CB        -74.4530   24.1260  -79.3672 C.3       7 UNK        -0.1958 
     37 N         -75.1946   25.9454  -77.8928 N.am      7 UNK        -0.4454 
     38 C         -75.3360   27.1866  -77.4030 C.2       7 UNK         0.5089 
     39 O         -74.6154   28.1335  -77.7187 O.2       7 UNK        -0.5125 
     40 CA        -76.4274   27.3963  -76.3382 C.3       6 UNK         0.0408 
     41 CB        -77.8198   27.4845  -76.9762 C.3       6 UNK        -0.1791 
     42 N         -76.4073   26.3555  -75.3072 N.am      6 UNK        -0.4762 
     43 C         -75.3719   26.1508  -74.4769 C.2       6 UNK         0.5007 
     44 O         -74.3752   26.8708  -74.4480 O.2       6 UNK        -0.5032 
     45 CA        -75.3983   24.8956  -73.5846 C.3       5 UNK         0.0783 
     46 C46       -75.7832   25.1839  -72.1141 C.3       11 UNK        -0.0857 
     47 S47       -77.5530   25.5048  -71.8149 S.3       11 UNK        -0.2512 
     48 C48       -77.5067   27.1371  -71.0088 C.3       11 UNK         0.0225 
     49 N         -76.1514   23.7946  -74.1919 N.am      5 UNK        -0.4615 
     50 C         -75.6874   23.0822  -75.2279 C.2       4 UNK         0.5053 
     51 O         -74.5938   23.2840  -75.7579 O.2       4 UNK        -0.5105 
     52 CA        -76.6061   21.9845  -75.7850 C.3       4 UNK         0.0263 
     53 CB        -76.7540   20.8254  -74.7853 C.3       4 UNK        -0.1981 
     54 N         -77.9290   22.4843  -76.1647 N.am      4 UNK        -0.4224 
     55 C         -78.1568   23.4089  -77.1089 C.2       3 UNK         0.4895 
     56 O         -77.2698   23.9668  -77.7527 O.2       3 UNK        -0.5091 
     57 CA        -79.6222   23.7855  -77.3836 C.3       3 UNK         0.0250 
     58 CB        -80.2005   22.9015  -78.5001 C.3       3 UNK        -0.1996 
     59 N         -80.4932   23.7172  -76.2066 N.am      3 UNK        -0.4254 
     60 C         -80.3507   24.4727  -75.1096 C.2       2 UNK         0.5004 
     61 O         -79.4153   25.2557  -74.9293 O.2       2 UNK        -0.5226 
     62 CA        -81.4173   24.2980  -74.0205 C.3       2 UNK         0.0269 
     63 CB        -80.8583   23.5039  -72.8292 C.3       2 UNK        -0.1926 
     64 N         -81.8735   25.6072  -73.5599 N.am      2 UNK        -0.4687 
     65 C         -82.8500   26.3208  -74.1395 C.2       1 UNK         0.5165 
     66 O         -83.5239   25.9016  -75.0825 O.2       1 UNK        -0.5079 
     67 H67       -82.8298   28.2188  -69.1011 H         1 UNK         0.0900 
     68 H68       -81.3842   28.5475  -70.0555 H         1 UNK         0.0900 
     69 H69       -81.6850   26.9191  -69.4432 H         1 UNK         0.0900 
     70 H70       -81.7397   28.6108  -72.2711 H         1 UNK         0.2959 
     71 H71       -84.2197   27.7762  -73.4392 H         1 UNK         0.1079 
     72 H72       -83.3592   28.7264  -75.5067 H         1 UNK         0.0837 
     73 H73       -83.0804   29.8293  -74.1999 H         1 UNK         0.0837 
     74 H74       -80.9906   30.2760  -73.0506 H         1 UNK         0.0685 
     75 H75       -80.2784   31.1127  -74.4058 H         1 UNK         0.0685 
     76 H76       -79.7333   28.2130  -72.0849 H         1 UNK         0.1434 
     77 H77       -75.4664   28.5175  -72.2186 H         1 UNK         0.1329 
     78 H78       -77.8751   31.0742  -74.6811 H         1 UNK         0.1335 
     79 H79       -75.4945   30.8187  -75.1255 H         1 UNK         0.0680 
     80 H80       -74.5156   29.7103  -74.2119 H         1 UNK         0.0680 
     81 H81       -73.5609   31.5256  -71.0628 H         1 UNK         0.1032 
     82 H82       -73.6131   30.0357  -71.9603 H         1 UNK         0.1032 
     83 H83       -71.8611   32.4372  -72.6841 H         1 UNK         0.0461 
     84 H84       -68.9684   30.4082  -71.2005 H         1 UNK         0.3453 
     85 H85       -69.4713   30.5108  -72.8708 H         1 UNK         0.3453 
     86 H86       -71.6855   31.4826  -74.6493 H         1 UNK         0.2984 
     87 H87       -72.5481   29.6559  -76.1627 H         1 UNK         0.0554 
     88 H88       -70.3843   29.5214  -77.4891 H         1 UNK         0.0847 
     89 H89       -69.4917   29.5097  -75.9694 H         1 UNK         0.0847 
     90 H90       -70.4615   30.9019  -76.4131 H         1 UNK         0.0847 
     91 H91       -72.7336   27.4786  -76.2818 H         1 UNK         0.3141 
     92 H92       -70.5751   24.8662  -76.7676 H         1 UNK         0.0743 
     93 H93       -70.5503   24.4667  -74.3483 H         1 UNK         0.0784 
     94 H94       -72.2018   25.0313  -74.1812 H         1 UNK         0.0784 
     95 H95       -71.8609   23.5293  -75.0481 H         1 UNK         0.0784 
     96 H96       -73.4231   24.8940  -76.4504 H         1 UNK         0.3213 
     97 H97       -74.1696   26.2286  -79.6767 H         1 UNK         0.0855 
     98 H98       -74.4881   23.3890  -78.5638 H         1 UNK         0.0814 
     99 H99       -73.6905   23.8017  -80.0768 H         1 UNK         0.0814 
    100 H100      -75.4112   24.0985  -79.8863 H         1 UNK         0.0814 
    101 H101      -75.8650   25.2293  -77.6198 H         1 UNK         0.3105 
    102 H102      -76.2293   28.3487  -75.8463 H         1 UNK         0.0547 
    103 H103      -78.0721   26.5801  -77.5273 H         1 UNK         0.0837 
    104 H104      -78.5880   27.6416  -76.2195 H         1 UNK         0.0837 
    105 H105      -77.8756   28.3198  -77.6750 H         1 UNK         0.0837 
    106 H106      -77.2215   25.7553  -75.2391 H         1 UNK         0.3020 
    107 H107      -74.3590   24.5643  -73.5408 H         1 UNK         0.1245 
    108 H108      -75.1796   26.0065  -71.7270 H         1 UNK         0.0781 
    109 H109      -75.5118   24.3216  -71.5032 H         1 UNK         0.0781 
    110 H110      -76.6126   27.2391  -70.3921 H         1 UNK         0.0836 
    111 H111      -78.3498   27.2057  -70.3196 H         1 UNK         0.0836 
    112 H112      -77.0754   23.6177  -73.8249 H         1 UNK         0.3022 
    113 H113      -76.1330   21.5923  -76.6880 H         1 UNK         0.0747 
    114 H114      -77.3066   19.9938  -75.2231 H         1 UNK         0.0793 
    115 H115      -75.7774   20.4408  -74.4877 H         1 UNK         0.0793 
    116 H116      -77.2744   21.1319  -73.8771 H         1 UNK         0.0793 
    117 H117      -78.7241   22.0868  -75.6870 H         1 UNK         0.3047 
    118 H118      -79.6319   24.8190  -77.7344 H         1 UNK         0.0822 
    119 H119      -79.5825   22.9537  -79.3979 H         1 UNK         0.0807 
    120 H120      -81.2035   23.2222  -78.7822 H         1 UNK         0.0807 
    121 H121      -80.2529   21.8536  -78.2016 H         1 UNK         0.0807 
    122 H122      -81.2844   23.0924  -76.2697 H         1 UNK         0.2946 
    123 H123      -82.2661   23.7449  -74.4298 H         1 UNK         0.1144 
    124 H124      -80.0144   24.0125  -72.3642 H         1 UNK         0.0793 
    125 H125      -80.5130   22.5179  -73.1425 H         1 UNK         0.0793 
    126 H126      -81.6191   23.3527  -72.0633 H         1 UNK         0.0793 
    127 H127      -81.3289   26.0457  -72.8327 H         1 UNK         0.2896 
@<TRIPOS>BOND
     1    1    2 1    
     2    1   67 1    
     3    1   68 1    
     4    1   69 1    
     5    2    3 2    
     6    2    4 am   BACKBONE|DICT|INTERRES
     7    4    5 1    
     8    4   70 1    
     9    5    6 1    
    10    5   65 1    
    11    5   71 1    
    12    6    7 1    
    13    6   72 1    
    14    6   73 1    
    15    7    8 1    
    16    8    9 1    
    17    8   74 1    
    18    8   75 1    
    19    9   10 ar   
    20    9   14 ar   
    21   10   11 ar   
    22   10   76 1    
    23   11   12 ar   
    24   11   48 1    
    25   12   13 ar   
    26   12   77 1    
    27   13   14 ar   
    28   13   15 1    
    29   14   78 1    
    30   15   16 1    
    31   15   79 1    
    32   15   80 1    
    33   16   17 1    
    34   17   18 1    
    35   17   81 1    
    36   17   82 1    
    37   18   19 1    
    38   18   22 1    
    39   18   83 1    
    40   19   20 am   BACKBONE|DICT|INTERRES
    41   19   21 2    
    42   20   84 1    
    43   20   85 1    
    44   22   23 am   BACKBONE|DICT|INTERRES
    45   22   86 1    
    46   23   24 2    
    47   23   25 1    
    48   25   26 1    
    49   25   27 1    
    50   25   87 1    
    51   26   88 1    
    52   26   89 1    
    53   26   90 1    
    54   27   28 am   BACKBONE|DICT|INTERRES
    55   27   91 1    
    56   28   29 2    
    57   28   30 1    
    58   30   31 1    
    59   30   32 1    
    60   30   92 1    
    61   31   93 1    
    62   31   94 1    
    63   31   95 1    
    64   32   33 am   BACKBONE|DICT|INTERRES
    65   32   96 1    
    66   33   34 2    
    67   33   35 1    
    68   35   36 1    
    69   35   37 1    
    70   35   97 1    
    71   36   98 1    
    72   36   99 1    
    73   36  100 1    
    74   37   38 am   BACKBONE|DICT|INTERRES
    75   37  101 1    
    76   38   39 2    
    77   38   40 1    
    78   40   41 1    
    79   40   42 1    
    80   40  102 1    
    81   41  103 1    
    82   41  104 1    
    83   41  105 1    
    84   42   43 am   BACKBONE|DICT|INTERRES
    85   42  106 1    
    86   43   44 2    
    87   43   45 1    
    88   45   46 1    
    89   45   49 1    
    90   45  107 1    
    91   46   47 1    
    92   46  108 1    
    93   46  109 1    
    94   47   48 1    
    95   48  110 1    
    96   48  111 1    
    97   49   50 am   BACKBONE|DICT|INTERRES
    98   49  112 1    
    99   50   51 2    
   100   50   52 1    
   101   52   53 1    
   102   52   54 1    
   103   52  113 1    
   104   53  114 1    
   105   53  115 1    
   106   53  116 1    
   107   54   55 am   BACKBONE|DICT|INTERRES
   108   54  117 1    
   109   55   56 2    
   110   55   57 1    
   111   57   58 1    
   112   57   59 1    
   113   57  118 1    
   114   58  119 1    
   115   58  120 1    
   116   58  121 1    
   117   59   60 am   BACKBONE|DICT|INTERRES
   118   59  122 1    
   119   60   61 2    
   120   60   62 1    
   121   62   63 1    
   122   62   64 1    
   123   62  123 1    
   124   63  124 1    
   125   63  125 1    
   126   63  126 1    
   127   64   65 am   BACKBONE|DICT|INTERRES
   128   64  127 1    
   129   65   66 2    
@<TRIPOS>SUBSTRUCTURE
     1 UNK         1 GROUP             0       ****    0 ROOT    
