@<TRIPOS>MOLECULE
3R135
127   129    1
SMALL
USER_CHARGES


@<TRIPOS>ATOM
      1 CA        -76.6964   22.8845  -71.3040 C.3       0 UNK        -0.1998 
      2 C         -78.1910   22.8701  -71.0230 C.2       0 UNK         0.4909 
      3 O         -78.7357   21.8373  -70.6331 O.2       0 UNK        -0.5240 
      4 N         -78.8668   24.0051  -71.2359 N.am      1 UNK        -0.4739 
      5 CA        -80.3012   24.2348  -71.0062 C.3       1 UNK         0.0864 
      6 C6        -80.5845   25.7446  -70.7736 C.3       11 UNK        -0.0881 
      7 S7        -79.9480   26.8248  -72.1068 S.3       11 UNK        -0.2682 
      8 C8        -79.0407   28.0879  -71.1616 C.3       11 UNK         0.0289 
      9 C9        -78.4692   29.1675  -72.0714 C.ar      11 UNK        -0.0687 
     10 C10       -79.3185   29.9099  -72.8979 C.ar      11 UNK        -0.0823 
     11 C11       -78.8079   30.9027  -73.7373 C.ar      11 UNK        -0.0830 
     12 C12       -77.4378   31.1782  -73.7213 C.ar      11 UNK        -0.1021 
     13 C13       -76.5757   30.4411  -72.9034 C.ar      11 UNK        -0.0753 
     14 C14       -77.0965   29.4360  -72.0820 C.ar      11 UNK        -0.0933 
     15 C15       -75.0850   30.7440  -72.9000 C.3       11 UNK         0.0166 
     16 S16       -74.3107   30.3133  -74.4873 S.3       11 UNK        -0.2615 
     17 C17       -72.6263   30.9667  -74.2257 C.3       11 UNK        -0.0865 
     18 CA        -71.5193   30.0424  -74.8147 C.3       10 UNK         0.0862 
     19 C         -70.0832   30.6500  -74.7402 C.2       10 UNK         0.5551 
     20 N         -69.9311   31.9560  -74.9204 N.am      10 UNK        -0.7319 
     21 O         -69.0886   29.9452  -74.5744 O.2       10 UNK        -0.5018 
     22 N         -71.5977   28.6613  -74.3087 N.am      10 UNK        -0.4509 
     23 C         -71.3811   28.2676  -73.0458 C.2       10 UNK         0.4899 
     24 O         -71.1196   29.0370  -72.1184 O.2       10 UNK        -0.4839 
     25 CA        -71.4700   26.7502  -72.7856 C.3       9 UNK         0.0222 
     26 CB        -71.3018   26.3796  -71.2962 C.3       9 UNK        -0.1966 
     27 N         -72.6901   26.1490  -73.3358 N.am      9 UNK        -0.4218 
     28 C         -73.9636   26.4475  -73.0418 C.2       9 UNK         0.5020 
     29 O         -74.2900   27.2779  -72.1926 O.2       9 UNK        -0.5274 
     30 CA        -75.0561   25.6697  -73.8145 C.3       8 UNK         0.0270 
     31 CB        -76.4608   26.2565  -73.5731 C.3       8 UNK        -0.1976 
     32 N         -74.8238   25.5969  -75.2627 N.am      8 UNK        -0.4313 
     33 C         -73.8733   24.8848  -75.8860 C.2       8 UNK         0.5041 
     34 O         -73.0783   24.1534  -75.2945 O.2       8 UNK        -0.5577 
     35 CA        -73.7413   25.0550  -77.4100 C.3       7 UNK         0.0284 
     36 CB        -74.6227   24.0459  -78.1618 C.3       7 UNK        -0.1958 
     37 N         -74.0639   26.4077  -77.8646 N.am      7 UNK        -0.4454 
     38 C         -73.3462   27.5065  -77.5889 C.2       7 UNK         0.5089 
     39 O         -72.2892   27.4995  -76.9580 O.2       7 UNK        -0.5125 
     40 CA        -73.9533   28.8341  -78.0565 C.3       6 UNK         0.0408 
     41 CB        -73.8018   29.0098  -79.5797 C.3       6 UNK        -0.1791 
     42 N         -75.3536   28.8614  -77.6439 N.am      6 UNK        -0.4762 
     43 C         -76.2019   29.8901  -77.6542 C.2       6 UNK         0.5007 
     44 O         -75.9272   30.9906  -78.1362 O.2       6 UNK        -0.5032 
     45 CA        -77.5901   29.6337  -77.0106 C.3       5 UNK         0.0783 
     46 C46       -78.4947   30.8939  -77.0887 C.3       11 UNK        -0.0857 
     47 S47       -80.0726   30.7148  -76.1894 S.3       11 UNK        -0.2512 
     48 C48       -79.7414   31.6615  -74.6675 C.3       11 UNK         0.0225 
     49 N         -78.2704   28.4428  -77.5499 N.am      5 UNK        -0.4615 
     50 C         -77.9302   27.1597  -77.3635 C.2       4 UNK         0.5053 
     51 O         -76.9243   26.7981  -76.7462 O.2       4 UNK        -0.5105 
     52 CA        -78.8208   26.1130  -78.0563 C.3       4 UNK         0.0263 
     53 CB        -78.5007   26.0604  -79.5601 C.3       4 UNK        -0.1981 
     54 N         -78.6524   24.7673  -77.4982 N.am      4 UNK        -0.4224 
     55 C         -79.0677   24.3787  -76.2857 C.2       3 UNK         0.4895 
     56 O         -79.6820   25.1069  -75.5040 O.2       3 UNK        -0.5091 
     57 CA        -78.7189   22.9328  -75.8863 C.3       3 UNK         0.0250 
     58 CB        -77.2491   22.8159  -75.4487 C.3       3 UNK        -0.1996 
     59 N         -79.5555   22.4627  -74.7850 N.am      3 UNK        -0.4254 
     60 C         -80.8027   21.9876  -74.8946 C.2       2 UNK         0.5004 
     61 O         -81.3821   21.8160  -75.9679 O.2       2 UNK        -0.5226 
     62 CA        -81.5182   21.6267  -73.5783 C.3       2 UNK         0.0269 
     63 CB        -81.4541   20.1112  -73.3283 C.3       2 UNK        -0.1926 
     64 N         -80.9393   22.3261  -72.4261 N.am      2 UNK        -0.4687 
     65 C         -81.1925   23.6017  -72.1062 C.2       1 UNK         0.5165 
     66 O         -82.0769   24.2615  -72.6552 O.2       1 UNK        -0.5079 
     67 H67       -76.1552   22.4292  -70.4751 H         1 UNK         0.0900 
     68 H68       -76.4760   22.3165  -72.2073 H         1 UNK         0.0900 
     69 H69       -76.3189   23.8983  -71.4321 H         1 UNK         0.0900 
     70 H70       -78.3788   24.8128  -71.5968 H         1 UNK         0.2959 
     71 H71       -80.5748   23.7175  -70.0837 H         1 UNK         0.1079 
     72 H72       -81.6532   25.9298  -70.6499 H         1 UNK         0.0837 
     73 H73       -80.1311   26.0460  -69.8281 H         1 UNK         0.0837 
     74 H74       -78.2480   27.6030  -70.5896 H         1 UNK         0.0685 
     75 H75       -79.7134   28.5521  -70.4391 H         1 UNK         0.0685 
     76 H76       -80.3790   29.6970  -72.9033 H         1 UNK         0.1434 
     77 H77       -77.0339   31.9508  -74.3613 H         1 UNK         0.1329 
     78 H78       -76.4301   28.8621  -71.4521 H         1 UNK         0.1335 
     79 H79       -74.9363   31.8059  -72.6990 H         1 UNK         0.0680 
     80 H80       -74.5795   30.1982  -72.1012 H         1 UNK         0.0680 
     81 H81       -72.4518   31.1291  -73.1608 H         1 UNK         0.1032 
     82 H82       -72.5995   31.9529  -74.6898 H         1 UNK         0.1032 
     83 H83       -71.7116   29.9547  -75.8835 H         1 UNK         0.0461 
     84 H84       -70.7176   32.5605  -75.0946 H         1 UNK         0.3453 
     85 H85       -69.0012   32.3446  -74.8920 H         1 UNK         0.3453 
     86 H86       -71.7964   27.9658  -75.0192 H         1 UNK         0.2984 
     87 H87       -70.6387   26.2998  -73.3299 H         1 UNK         0.0554 
     88 H88       -70.3432   26.7311  -70.9126 H         1 UNK         0.0847 
     89 H89       -71.3325   25.3001  -71.1494 H         1 UNK         0.0847 
     90 H90       -72.0814   26.8249  -70.6772 H         1 UNK         0.0847 
     91 H91       -72.5559   25.4276  -74.0426 H         1 UNK         0.3141 
     92 H92       -75.0466   24.6501  -73.4258 H         1 UNK         0.0743 
     93 H93       -76.7085   26.2727  -72.5115 H         1 UNK         0.0784 
     94 H94       -76.5290   27.2825  -73.9375 H         1 UNK         0.0784 
     95 H95       -77.2372   25.6818  -74.0761 H         1 UNK         0.0784 
     96 H96       -75.4720   26.1334  -75.8354 H         1 UNK         0.3213 
     97 H97       -72.6990   24.8537  -77.6673 H         1 UNK         0.0855 
     98 H98       -75.6821   24.2769  -78.0534 H         1 UNK         0.0814 
     99 H99       -74.4632   23.0315  -77.7929 H         1 UNK         0.0814 
    100 H100      -74.3922   24.0403  -79.2272 H         1 UNK         0.0814 
    101 H101      -74.9154   26.5120  -78.3964 H         1 UNK         0.3105 
    102 H102      -73.4306   29.6473  -77.5504 H         1 UNK         0.0547 
    103 H103      -74.3739   28.2657  -80.1345 H         1 UNK         0.0837 
    104 H104      -74.1353   29.9953  -79.9039 H         1 UNK         0.0837 
    105 H105      -72.7579   28.9116  -79.8802 H         1 UNK         0.0837 
    106 H106      -75.7037   28.0097  -77.2090 H         1 UNK         0.3020 
    107 H107      -77.3919   29.4358  -75.9545 H         1 UNK         0.1245 
    108 H108      -78.7276   31.1263  -78.1295 H         1 UNK         0.0781 
    109 H109      -77.9722   31.7697  -76.6999 H         1 UNK         0.0781 
    110 H110      -80.6879   31.8512  -74.1588 H         1 UNK         0.0836 
    111 H111      -79.3324   32.6418  -74.9172 H         1 UNK         0.0836 
    112 H112      -79.0970   28.6398  -78.0948 H         1 UNK         0.3022 
    113 H113      -79.8638   26.4090  -77.9243 H         1 UNK         0.0747 
    114 H114      -77.4655   25.7689  -79.7434 H         1 UNK         0.0793 
    115 H115      -79.1455   25.3501  -80.0781 H         1 UNK         0.0793 
    116 H116      -78.6527   27.0318  -80.0325 H         1 UNK         0.0793 
    117 H117      -78.1405   24.1097  -78.0670 H         1 UNK         0.3047 
    118 H118      -78.8805   22.2874  -76.7526 H         1 UNK         0.0822 
    119 H119      -76.9837   21.7817  -75.2284 H         1 UNK         0.0807 
    120 H120      -77.0426   23.4078  -74.5579 H         1 UNK         0.0807 
    121 H121      -76.5736   23.1584  -76.2297 H         1 UNK         0.0807 
    122 H122      -79.2006   22.6183  -73.8547 H         1 UNK         0.2946 
    123 H123      -82.5667   21.9155  -73.6843 H         1 UNK         0.1144 
    124 H124      -82.0059   19.8342  -72.4298 H         1 UNK         0.0793 
    125 H125      -80.4266   19.7636  -73.2121 H         1 UNK         0.0793 
    126 H126      -81.8937   19.5593  -74.1604 H         1 UNK         0.0793 
    127 H127      -80.2170   21.8454  -71.8962 H         1 UNK         0.2896 
@<TRIPOS>BOND
     1    1    2 1    
     2    1   67 1    
     3    1   68 1    
     4    1   69 1    
     5    2    3 2    
     6    2    4 am   BACKBONE|DICT|INTERRES
     7    4    5 1    
     8    4   70 1    
     9    5    6 1    
    10    5   65 1    
    11    5   71 1    
    12    6    7 1    
    13    6   72 1    
    14    6   73 1    
    15    7    8 1    
    16    8    9 1    
    17    8   74 1    
    18    8   75 1    
    19    9   10 ar   
    20    9   14 ar   
    21   10   11 ar   
    22   10   76 1    
    23   11   12 ar   
    24   11   48 1    
    25   12   13 ar   
    26   12   77 1    
    27   13   14 ar   
    28   13   15 1    
    29   14   78 1    
    30   15   16 1    
    31   15   79 1    
    32   15   80 1    
    33   16   17 1    
    34   17   18 1    
    35   17   81 1    
    36   17   82 1    
    37   18   19 1    
    38   18   22 1    
    39   18   83 1    
    40   19   20 am   BACKBONE|DICT|INTERRES
    41   19   21 2    
    42   20   84 1    
    43   20   85 1    
    44   22   23 am   BACKBONE|DICT|INTERRES
    45   22   86 1    
    46   23   24 2    
    47   23   25 1    
    48   25   26 1    
    49   25   27 1    
    50   25   87 1    
    51   26   88 1    
    52   26   89 1    
    53   26   90 1    
    54   27   28 am   BACKBONE|DICT|INTERRES
    55   27   91 1    
    56   28   29 2    
    57   28   30 1    
    58   30   31 1    
    59   30   32 1    
    60   30   92 1    
    61   31   93 1    
    62   31   94 1    
    63   31   95 1    
    64   32   33 am   BACKBONE|DICT|INTERRES
    65   32   96 1    
    66   33   34 2    
    67   33   35 1    
    68   35   36 1    
    69   35   37 1    
    70   35   97 1    
    71   36   98 1    
    72   36   99 1    
    73   36  100 1    
    74   37   38 am   BACKBONE|DICT|INTERRES
    75   37  101 1    
    76   38   39 2    
    77   38   40 1    
    78   40   41 1    
    79   40   42 1    
    80   40  102 1    
    81   41  103 1    
    82   41  104 1    
    83   41  105 1    
    84   42   43 am   BACKBONE|DICT|INTERRES
    85   42  106 1    
    86   43   44 2    
    87   43   45 1    
    88   45   46 1    
    89   45   49 1    
    90   45  107 1    
    91   46   47 1    
    92   46  108 1    
    93   46  109 1    
    94   47   48 1    
    95   48  110 1    
    96   48  111 1    
    97   49   50 am   BACKBONE|DICT|INTERRES
    98   49  112 1    
    99   50   51 2    
   100   50   52 1    
   101   52   53 1    
   102   52   54 1    
   103   52  113 1    
   104   53  114 1    
   105   53  115 1    
   106   53  116 1    
   107   54   55 am   BACKBONE|DICT|INTERRES
   108   54  117 1    
   109   55   56 2    
   110   55   57 1    
   111   57   58 1    
   112   57   59 1    
   113   57  118 1    
   114   58  119 1    
   115   58  120 1    
   116   58  121 1    
   117   59   60 am   BACKBONE|DICT|INTERRES
   118   59  122 1    
   119   60   61 2    
   120   60   62 1    
   121   62   63 1    
   122   62   64 1    
   123   62  123 1    
   124   63  124 1    
   125   63  125 1    
   126   63  126 1    
   127   64   65 am   BACKBONE|DICT|INTERRES
   128   64  127 1    
   129   65   66 2    
@<TRIPOS>SUBSTRUCTURE
     1 UNK         1 GROUP             0       ****    0 ROOT    
