@<TRIPOS>MOLECULE
3R135
127   129    1
SMALL
USER_CHARGES


@<TRIPOS>ATOM
      1 CA        -85.3249   25.6594  -69.5282 C.3       0 UNK        -0.1998 
      2 C         -84.9348   26.3999  -70.7986 C.2       0 UNK         0.4909 
      3 O         -85.7529   26.5236  -71.7104 O.2       0 UNK        -0.5240 
      4 N         -83.6932   26.8978  -70.8602 N.am      1 UNK        -0.4739 
      5 CA        -83.1116   27.5972  -72.0132 C.3       1 UNK         0.0864 
      6 C6        -81.7954   28.3353  -71.6453 C.3       11 UNK        -0.0881 
      7 S7        -80.6172   27.3587  -70.6347 S.3       11 UNK        -0.2682 
      8 C8        -79.3449   26.8593  -71.8375 C.3       11 UNK         0.0289 
      9 C9        -78.4323   28.0110  -72.2285 C.ar      11 UNK        -0.0687 
     10 C10       -78.6863   28.7511  -73.3868 C.ar      11 UNK        -0.0823 
     11 C11       -77.8454   29.8056  -73.7554 C.ar      11 UNK        -0.0830 
     12 C12       -76.7358   30.1085  -72.9624 C.ar      11 UNK        -0.1021 
     13 C13       -76.4618   29.3637  -71.8118 C.ar      11 UNK        -0.0753 
     14 C14       -77.3166   28.3203  -71.4448 C.ar      11 UNK        -0.0933 
     15 C15       -75.2282   29.6769  -70.9833 C.3       11 UNK         0.0166 
     16 S16       -73.7987   28.7520  -71.6158 S.3       11 UNK        -0.2615 
     17 C17       -72.4176   29.6629  -70.8457 C.3       11 UNK        -0.0865 
     18 CA        -71.9388   30.8882  -71.6836 C.3       10 UNK         0.0862 
     19 C         -70.7834   31.6674  -70.9840 C.2       10 UNK         0.5551 
     20 N         -69.8318   32.2356  -71.7147 N.am      10 UNK        -0.7319 
     21 O         -70.7643   31.7882  -69.7613 O.2       10 UNK        -0.5018 
     22 N         -71.7068   30.5806  -73.1090 N.am      10 UNK        -0.4509 
     23 C         -70.8348   29.6886  -73.5926 C.2       10 UNK         0.4899 
     24 O         -70.0541   29.0300  -72.9014 O.2       10 UNK        -0.4839 
     25 CA        -70.8075   29.5359  -75.1211 C.3       9 UNK         0.0222 
     26 CB        -69.7111   30.4241  -75.7322 C.3       9 UNK        -0.1966 
     27 N         -70.5592   28.1417  -75.4863 N.am      9 UNK        -0.4218 
     28 C         -71.4961   27.1861  -75.4972 C.2       9 UNK         0.5020 
     29 O         -72.6963   27.3890  -75.3059 O.2       9 UNK        -0.5274 
     30 CA        -70.9933   25.7581  -75.7275 C.3       8 UNK         0.0270 
     31 CB        -70.5976   25.0978  -74.3936 C.3       8 UNK        -0.1976 
     32 N         -72.0312   24.9664  -76.3837 N.am      8 UNK        -0.4313 
     33 C         -71.7943   23.9170  -77.1809 C.2       8 UNK         0.5041 
     34 O         -70.6655   23.4946  -77.4379 O.2       8 UNK        -0.5577 
     35 CA        -73.0083   23.2161  -77.8073 C.3       7 UNK         0.0284 
     36 CB        -73.6167   22.1985  -76.8276 C.3       7 UNK        -0.1958 
     37 N         -74.0324   24.1693  -78.2352 N.am      7 UNK        -0.4454 
     38 C         -74.0203   24.8178  -79.4082 C.2       7 UNK         0.5089 
     39 O         -73.1386   24.6761  -80.2563 O.2       7 UNK        -0.5125 
     40 CA        -75.1932   25.7682  -79.7084 C.3       6 UNK         0.0408 
     41 CB        -76.1901   25.0975  -80.6673 C.3       6 UNK        -0.1791 
     42 N         -75.9034   26.1868  -78.4987 N.am      6 UNK        -0.4762 
     43 C         -75.5336   27.2186  -77.7234 C.2       6 UNK         0.5007 
     44 O         -74.5894   27.9618  -77.9917 O.2       6 UNK        -0.5032 
     45 CA        -76.3590   27.4597  -76.4365 C.3       5 UNK         0.0783 
     46 C46       -77.5150   28.4590  -76.7186 C.3       11 UNK        -0.0857 
     47 S47       -77.0302   30.1845  -76.3858 S.3       11 UNK        -0.2512 
     48 C48       -78.1357   30.6233  -75.0060 C.3       11 UNK         0.0225 
     49 N         -76.8727   26.2226  -75.8351 N.am      5 UNK        -0.4615 
     50 C         -76.1483   25.1509  -75.4824 C.2       4 UNK         0.5053 
     51 O         -74.9211   25.1011  -75.5451 O.2       4 UNK        -0.5105 
     52 CA        -76.9221   23.8844  -75.0679 C.3       4 UNK         0.0263 
     53 CB        -76.9793   23.7770  -73.5362 C.3       4 UNK        -0.1981 
     54 N         -78.2853   23.7964  -75.6057 N.am      4 UNK        -0.4224 
     55 C         -78.6514   23.8927  -76.8935 C.2       3 UNK         0.4895 
     56 O         -77.8449   24.0225  -77.8157 O.2       3 UNK        -0.5091 
     57 CA        -80.1610   23.8844  -77.2197 C.3       3 UNK         0.0250 
     58 CB        -80.4991   22.7302  -78.1789 C.3       3 UNK        -0.1996 
     59 N         -81.0640   23.8164  -76.0611 N.am      3 UNK        -0.4254 
     60 C         -81.2011   24.7447  -75.1028 C.2       2 UNK         0.5004 
     61 O         -80.5355   25.7822  -75.0663 O.2       2 UNK        -0.5226 
     62 CA        -82.2001   24.3966  -73.9779 C.3       2 UNK         0.0269 
     63 CB        -81.7374   23.1459  -73.2063 C.3       2 UNK        -0.1926 
     64 N         -82.4171   25.4665  -73.0000 N.am      2 UNK        -0.4687 
     65 C         -82.9472   26.6735  -73.2398 C.2       1 UNK         0.5165 
     66 O         -83.3412   27.0488  -74.3455 O.2       1 UNK        -0.5079 
     67 H67       -86.1795   26.1452  -69.0580 H         1 UNK         0.0900 
     68 H68       -85.6030   24.6324  -69.7634 H         1 UNK         0.0900 
     69 H69       -84.5099   25.6329  -68.8051 H         1 UNK         0.0900 
     70 H70       -83.0639   26.7706  -70.0793 H         1 UNK         0.2959 
     71 H71       -83.8322   28.3619  -72.3132 H         1 UNK         0.1079 
     72 H72       -82.0475   29.2182  -71.0560 H         1 UNK         0.0837 
     73 H73       -81.3076   28.7274  -72.5370 H         1 UNK         0.0837 
     74 H74       -78.7496   26.0577  -71.3980 H         1 UNK         0.0685 
     75 H75       -79.8175   26.4314  -72.7186 H         1 UNK         0.0685 
     76 H76       -79.5389   28.5016  -74.0038 H         1 UNK         0.1434 
     77 H77       -76.0742   30.9138  -73.2519 H         1 UNK         0.1329 
     78 H78       -77.1073   27.7411  -70.5558 H         1 UNK         0.1335 
     79 H79       -75.3928   29.4241  -69.9347 H         1 UNK         0.0680 
     80 H80       -75.0226   30.7479  -71.0181 H         1 UNK         0.0680 
     81 H81       -71.5940   28.9624  -70.6982 H         1 UNK         0.1032 
     82 H82       -72.7214   29.9757  -69.8449 H         1 UNK         0.1032 
     83 H83       -72.7653   31.5993  -71.6925 H         1 UNK         0.0461 
     84 H84       -69.8413   32.1502  -72.7180 H         1 UNK         0.3453 
     85 H85       -69.0942   32.7470  -71.2561 H         1 UNK         0.3453 
     86 H86       -72.2890   31.0879  -73.7595 H         1 UNK         0.2984 
     87 H87       -71.7718   29.8441  -75.5318 H         1 UNK         0.0554 
     88 H88       -68.7224   30.1725  -75.3456 H         1 UNK         0.0847 
     89 H89       -69.8901   31.4764  -75.5075 H         1 UNK         0.0847 
     90 H90       -69.6814   30.3279  -76.8177 H         1 UNK         0.0847 
     91 H91       -69.5917   27.8737  -75.5958 H         1 UNK         0.3141 
     92 H92       -70.1173   25.8093  -76.3782 H         1 UNK         0.0743 
     93 H93       -71.4539   25.0081  -73.7236 H         1 UNK         0.0784 
     94 H94       -70.1876   24.0998  -74.5491 H         1 UNK         0.0784 
     95 H95       -69.8373   25.6835  -73.8748 H         1 UNK         0.0784 
     96 H96       -72.9871   25.2655  -76.1984 H         1 UNK         0.3213 
     97 H97       -72.6589   22.6629  -78.6823 H         1 UNK         0.0855 
     98 H98       -73.9216   22.6640  -75.8905 H         1 UNK         0.0814 
     99 H99       -72.8912   21.4228  -76.5789 H         1 UNK         0.0814 
    100 H100      -74.4870   21.7022  -77.2573 H         1 UNK         0.0814 
    101 H101      -74.7503   24.4015  -77.5611 H         1 UNK         0.3105 
    102 H102      -74.7865   26.6486  -80.2106 H         1 UNK         0.0547 
    103 H103      -75.7034   24.8184  -81.6028 H         1 UNK         0.0837 
    104 H104      -76.6154   24.1891  -80.2391 H         1 UNK         0.0837 
    105 H105      -77.0127   25.7672  -80.9181 H         1 UNK         0.0837 
    106 H106      -76.6803   25.5993  -78.2073 H         1 UNK         0.3020 
    107 H107      -75.6761   27.8864  -75.6969 H         1 UNK         0.1245 
    108 H108      -78.3879   28.2218  -76.1107 H         1 UNK         0.0781 
    109 H109      -77.8761   28.3902  -77.7471 H         1 UNK         0.0781 
    110 H110      -79.1736   30.4995  -75.3194 H         1 UNK         0.0836 
    111 H111      -78.0132   31.6837  -74.7804 H         1 UNK         0.0836 
    112 H112      -77.8763   26.1585  -75.7384 H         1 UNK         0.3022 
    113 H113      -76.3694   23.0262  -75.4542 H         1 UNK         0.0747 
    114 H114      -77.4361   22.8396  -73.2183 H         1 UNK         0.0793 
    115 H115      -75.9774   23.8096  -73.1052 H         1 UNK         0.0793 
    116 H116      -77.5489   24.5968  -73.0971 H         1 UNK         0.0793 
    117 H117      -79.0261   23.7157  -74.9259 H         1 UNK         0.3047 
    118 H118      -80.3671   24.8243  -77.7360 H         1 UNK         0.0822 
    119 H119      -81.5409   22.7695  -78.4978 H         1 UNK         0.0807 
    120 H120      -80.3239   21.7579  -77.7168 H         1 UNK         0.0807 
    121 H121      -79.8878   22.7759  -79.0816 H         1 UNK         0.0807 
    122 H122      -81.6339   22.9844  -76.0017 H         1 UNK         0.2946 
    123 H123      -83.1620   24.1867  -74.4511 H         1 UNK         0.1144 
    124 H124      -81.6375   22.2788  -73.8601 H         1 UNK         0.0793 
    125 H125      -82.4540   22.8719  -72.4314 H         1 UNK         0.0793 
    126 H126      -80.7713   23.3048  -72.7247 H         1 UNK         0.0793 
    127 H127      -82.1262   25.2731  -72.0530 H         1 UNK         0.2896 
@<TRIPOS>BOND
     1    1    2 1    
     2    1   67 1    
     3    1   68 1    
     4    1   69 1    
     5    2    3 2    
     6    2    4 am   BACKBONE|DICT|INTERRES
     7    4    5 1    
     8    4   70 1    
     9    5    6 1    
    10    5   65 1    
    11    5   71 1    
    12    6    7 1    
    13    6   72 1    
    14    6   73 1    
    15    7    8 1    
    16    8    9 1    
    17    8   74 1    
    18    8   75 1    
    19    9   10 ar   
    20    9   14 ar   
    21   10   11 ar   
    22   10   76 1    
    23   11   12 ar   
    24   11   48 1    
    25   12   13 ar   
    26   12   77 1    
    27   13   14 ar   
    28   13   15 1    
    29   14   78 1    
    30   15   16 1    
    31   15   79 1    
    32   15   80 1    
    33   16   17 1    
    34   17   18 1    
    35   17   81 1    
    36   17   82 1    
    37   18   19 1    
    38   18   22 1    
    39   18   83 1    
    40   19   20 am   BACKBONE|DICT|INTERRES
    41   19   21 2    
    42   20   84 1    
    43   20   85 1    
    44   22   23 am   BACKBONE|DICT|INTERRES
    45   22   86 1    
    46   23   24 2    
    47   23   25 1    
    48   25   26 1    
    49   25   27 1    
    50   25   87 1    
    51   26   88 1    
    52   26   89 1    
    53   26   90 1    
    54   27   28 am   BACKBONE|DICT|INTERRES
    55   27   91 1    
    56   28   29 2    
    57   28   30 1    
    58   30   31 1    
    59   30   32 1    
    60   30   92 1    
    61   31   93 1    
    62   31   94 1    
    63   31   95 1    
    64   32   33 am   BACKBONE|DICT|INTERRES
    65   32   96 1    
    66   33   34 2    
    67   33   35 1    
    68   35   36 1    
    69   35   37 1    
    70   35   97 1    
    71   36   98 1    
    72   36   99 1    
    73   36  100 1    
    74   37   38 am   BACKBONE|DICT|INTERRES
    75   37  101 1    
    76   38   39 2    
    77   38   40 1    
    78   40   41 1    
    79   40   42 1    
    80   40  102 1    
    81   41  103 1    
    82   41  104 1    
    83   41  105 1    
    84   42   43 am   BACKBONE|DICT|INTERRES
    85   42  106 1    
    86   43   44 2    
    87   43   45 1    
    88   45   46 1    
    89   45   49 1    
    90   45  107 1    
    91   46   47 1    
    92   46  108 1    
    93   46  109 1    
    94   47   48 1    
    95   48  110 1    
    96   48  111 1    
    97   49   50 am   BACKBONE|DICT|INTERRES
    98   49  112 1    
    99   50   51 2    
   100   50   52 1    
   101   52   53 1    
   102   52   54 1    
   103   52  113 1    
   104   53  114 1    
   105   53  115 1    
   106   53  116 1    
   107   54   55 am   BACKBONE|DICT|INTERRES
   108   54  117 1    
   109   55   56 2    
   110   55   57 1    
   111   57   58 1    
   112   57   59 1    
   113   57  118 1    
   114   58  119 1    
   115   58  120 1    
   116   58  121 1    
   117   59   60 am   BACKBONE|DICT|INTERRES
   118   59  122 1    
   119   60   61 2    
   120   60   62 1    
   121   62   63 1    
   122   62   64 1    
   123   62  123 1    
   124   63  124 1    
   125   63  125 1    
   126   63  126 1    
   127   64   65 am   BACKBONE|DICT|INTERRES
   128   64  127 1    
   129   65   66 2    
@<TRIPOS>SUBSTRUCTURE
     1 UNK         1 GROUP             0       ****    0 ROOT    
