@<TRIPOS>MOLECULE
3R135
127   129    1
SMALL
USER_CHARGES


@<TRIPOS>ATOM
      1 CA        -85.3365   27.0286  -72.0328 C.3       0 UNK        -0.1998 
      2 C         -84.4198   27.5879  -73.1102 C.2       0 UNK         0.4909 
      3 O         -84.8989   28.0066  -74.1645 O.2       0 UNK        -0.5240 
      4 N         -83.1056   27.6014  -72.8506 N.am      1 UNK        -0.4739 
      5 CA        -82.0675   28.0956  -73.7673 C.3       1 UNK         0.0864 
      6 C6        -80.7001   28.2462  -73.0578 C.3       11 UNK        -0.0881 
      7 S7        -80.7729   29.3373  -71.5950 S.3       11 UNK        -0.2682 
      8 C8        -79.1959   30.2536  -71.7235 C.3       11 UNK         0.0289 
      9 C9        -77.9240   29.4016  -71.6737 C.ar      11 UNK        -0.0687 
     10 C10       -77.8994   28.1103  -71.1278 C.ar      11 UNK        -0.0823 
     11 C11       -76.7265   27.3478  -71.1416 C.ar      11 UNK        -0.0830 
     12 C12       -75.5568   27.9100  -71.6570 C.ar      11 UNK        -0.1021 
     13 C13       -75.5450   29.2148  -72.1559 C.ar      11 UNK        -0.0753 
     14 C14       -76.7363   29.9469  -72.1742 C.ar      11 UNK        -0.0933 
     15 C15       -74.2461   29.8356  -72.6597 C.3       11 UNK         0.0166 
     16 S16       -72.9842   29.8710  -71.3394 S.3       11 UNK        -0.2615 
     17 C17       -71.7022   31.0916  -71.8198 C.3       11 UNK        -0.0865 
     18 CA        -71.7180   31.6681  -73.2608 C.3       10 UNK         0.0862 
     19 C         -70.6935   32.8358  -73.3902 C.2       10 UNK         0.5551 
     20 N         -69.6337   32.7121  -74.1807 N.am      10 UNK        -0.7319 
     21 O         -70.8697   33.8768  -72.7619 O.2       10 UNK        -0.5018 
     22 N         -71.5559   30.6104  -74.2696 N.am      10 UNK        -0.4509 
     23 C         -71.8881   30.7255  -75.5595 C.2       10 UNK         0.4899 
     24 O         -72.4242   31.7253  -76.0378 O.2       10 UNK        -0.4839 
     25 CA        -71.5872   29.5327  -76.4831 C.3       9 UNK         0.0222 
     26 CB        -70.1959   29.6698  -77.1319 C.3       9 UNK        -0.1966 
     27 N         -71.7750   28.2075  -75.8744 N.am      9 UNK        -0.4218 
     28 C         -71.0589   27.5986  -74.9148 C.2       9 UNK         0.5020 
     29 O         -70.1103   28.1318  -74.3375 O.2       9 UNK        -0.5274 
     30 CA        -71.4763   26.1746  -74.4891 C.3       8 UNK         0.0270 
     31 CB        -72.0129   26.1904  -73.0494 C.3       8 UNK        -0.1976 
     32 N         -72.4806   25.5620  -75.3650 N.am      8 UNK        -0.4313 
     33 C         -72.2420   25.1195  -76.6100 C.2       8 UNK         0.5041 
     34 O         -71.1155   25.0677  -77.1051 O.2       8 UNK        -0.5577 
     35 CA        -73.4526   24.7002  -77.4714 C.3       7 UNK         0.0284 
     36 CB        -73.5895   23.1689  -77.4853 C.3       7 UNK        -0.1958 
     37 N         -74.7315   25.2892  -77.0592 N.am      7 UNK        -0.4454 
     38 C         -74.9921   26.5960  -76.9103 C.2       7 UNK         0.5089 
     39 O         -74.2043   27.4866  -77.2260 O.2       7 UNK        -0.5125 
     40 CA        -76.3148   26.9812  -76.2242 C.3       6 UNK         0.0408 
     41 CB        -77.3541   27.4239  -77.2633 C.3       6 UNK        -0.1791 
     42 N         -76.8905   25.9330  -75.3745 N.am      6 UNK        -0.4762 
     43 C         -76.2983   25.3629  -74.3117 C.2       6 UNK         0.5007 
     44 O         -75.1376   25.5872  -73.9662 O.2       6 UNK        -0.5032 
     45 CA        -77.1488   24.3390  -73.5393 C.3       5 UNK         0.0783 
     46 C46       -78.2996   25.0366  -72.7596 C.3       11 UNK        -0.0857 
     47 S47       -78.1488   24.9031  -70.9490 S.3       11 UNK        -0.2512 
     48 C48       -76.6815   25.9285  -70.5792 C.3       11 UNK         0.0225 
     49 N         -77.6590   23.3431  -74.4804 N.am      5 UNK        -0.4615 
     50 C         -76.9778   22.2725  -74.9067 C.2       4 UNK         0.5053 
     51 O         -75.8766   21.9422  -74.4675 O.2       4 UNK        -0.5105 
     52 CA        -77.6269   21.4287  -76.0201 C.3       4 UNK         0.0263 
     53 CB        -78.3865   20.2370  -75.4155 C.3       4 UNK        -0.1981 
     54 N         -78.5354   22.1933  -76.8807 N.am      4 UNK        -0.4224 
     55 C         -78.1547   23.1816  -77.7029 C.2       3 UNK         0.4895 
     56 O         -76.9859   23.5333  -77.8556 O.2       3 UNK        -0.5091 
     57 CA        -79.2706   23.9380  -78.4446 C.3       3 UNK         0.0250 
     58 CB        -79.6128   23.2264  -79.7633 C.3       3 UNK        -0.1996 
     59 N         -80.4984   24.1392  -77.6637 N.am      3 UNK        -0.4254 
     60 C         -80.5765   24.7268  -76.4605 C.2       2 UNK         0.5004 
     61 O         -79.5964   25.1053  -75.8135 O.2       2 UNK        -0.5226 
     62 CA        -81.9876   24.8479  -75.8598 C.3       2 UNK         0.0269 
     63 CB        -82.4173   23.5046  -75.2461 C.3       2 UNK        -0.1926 
     64 N         -82.0853   25.8816  -74.8264 N.am      2 UNK        -0.4687 
     65 C         -81.9212   27.1998  -75.0166 C.2       1 UNK         0.5165 
     66 O         -81.6892   27.7140  -76.1120 O.2       1 UNK        -0.5079 
     67 H67       -84.7815   26.7046  -71.1526 H         1 UNK         0.0900 
     68 H68       -85.8902   26.1730  -72.4185 H         1 UNK         0.0900 
     69 H69       -86.0542   27.7867  -71.7204 H         1 UNK         0.0900 
     70 H70       -82.7734   27.2784  -71.9528 H         1 UNK         0.2959 
     71 H71       -82.3788   29.0824  -74.1177 H         1 UNK         0.1079 
     72 H72       -79.9515   28.6304  -73.7542 H         1 UNK         0.0837 
     73 H73       -80.3398   27.2722  -72.7260 H         1 UNK         0.0837 
     74 H74       -79.2143   30.8306  -72.6496 H         1 UNK         0.0685 
     75 H75       -79.1547   30.9785  -70.9097 H         1 UNK         0.0685 
     76 H76       -78.7958   27.6823  -70.7033 H         1 UNK         0.1434 
     77 H77       -74.6411   27.3369  -71.6483 H         1 UNK         0.1329 
     78 H78       -76.7387   30.9530  -72.5712 H         1 UNK         0.1335 
     79 H79       -74.4382   30.8466  -73.0172 H         1 UNK         0.0680 
     80 H80       -73.8770   29.2582  -73.5082 H         1 UNK         0.0680 
     81 H81       -71.7867   31.9077  -71.0990 H         1 UNK         0.1032 
     82 H82       -70.7308   30.6349  -71.6214 H         1 UNK         0.1032 
     83 H83       -72.6893   32.1360  -73.4233 H         1 UNK         0.0461 
     84 H84       -68.9811   33.4763  -74.2575 H         1 UNK         0.3453 
     85 H85       -69.4797   31.8605  -74.6955 H         1 UNK         0.3453 
     86 H86       -71.0685   29.7672  -73.9815 H         1 UNK         0.2984 
     87 H87       -72.3221   29.5793  -77.2882 H         1 UNK         0.0554 
     88 H88       -70.0127   28.8680  -77.8472 H         1 UNK         0.0847 
     89 H89       -69.3938   29.6497  -76.3938 H         1 UNK         0.0847 
     90 H90       -70.1116   30.6126  -77.6741 H         1 UNK         0.0847 
     91 H91       -72.5754   27.7056  -76.2513 H         1 UNK         0.3141 
     92 H92       -70.5791   25.5528  -74.5125 H         1 UNK         0.0743 
     93 H93       -72.3051   25.1936  -72.7186 H         1 UNK         0.0784 
     94 H94       -71.2589   26.5577  -72.3518 H         1 UNK         0.0784 
     95 H95       -72.8807   26.8427  -72.9612 H         1 UNK         0.0784 
     96 H96       -73.4357   25.5498  -75.0148 H         1 UNK         0.3213 
     97 H97       -73.2543   25.0388  -78.4902 H         1 UNK         0.0855 
     98 H98       -73.8521   22.7795  -76.5006 H         1 UNK         0.0814 
     99 H99       -72.6550   22.6935  -77.7871 H         1 UNK         0.0814 
    100 H100      -74.3562   22.8449  -78.1892 H         1 UNK         0.0814 
    101 H101      -75.4852   24.6389  -76.8657 H         1 UNK         0.3105 
    102 H102      -76.1031   27.8319  -75.5732 H         1 UNK         0.0547 
    103 H103      -76.9953   28.2846  -77.8292 H         1 UNK         0.0837 
    104 H104      -77.5635   26.6308  -77.9793 H         1 UNK         0.0837 
    105 H105      -78.2949   27.7124  -76.7934 H         1 UNK         0.0837 
    106 H106      -77.8512   25.6643  -75.5822 H         1 UNK         0.3020 
    107 H107      -76.4841   23.8349  -72.8339 H         1 UNK         0.1245 
    108 H108      -79.2638   24.5960  -73.0193 H         1 UNK         0.0781 
    109 H109      -78.4046   26.0895  -73.0241 H         1 UNK         0.0781 
    110 H110      -75.7993   25.4039  -70.9496 H         1 UNK         0.0836 
    111 H111      -76.5657   25.9899  -69.4965 H         1 UNK         0.0836 
    112 H112      -78.5262   23.5854  -74.9444 H         1 UNK         0.3022 
    113 H113      -76.8206   21.0405  -76.6464 H         1 UNK         0.0747 
    114 H114      -78.7822   19.5824  -76.1923 H         1 UNK         0.0793 
    115 H115      -77.7286   19.6324  -74.7895 H         1 UNK         0.0793 
    116 H116      -79.2202   20.5630  -74.7920 H         1 UNK         0.0793 
    117 H117      -79.5186   21.9722  -76.8205 H         1 UNK         0.3047 
    118 H118      -78.8836   24.9268  -78.6913 H         1 UNK         0.0822 
    119 H119      -80.0517   22.2428  -79.5915 H         1 UNK         0.0807 
    120 H120      -78.7190   23.0824  -80.3724 H         1 UNK         0.0807 
    121 H121      -80.3158   23.8091  -80.3590 H         1 UNK         0.0807 
    122 H122      -81.3558   23.8395  -78.1059 H         1 UNK         0.2946 
    123 H123      -82.6793   25.1142  -76.6622 H         1 UNK         0.1144 
    124 H124      -81.7532   23.2010  -74.4354 H         1 UNK         0.0793 
    125 H125      -82.4089   22.7070  -75.9901 H         1 UNK         0.0793 
    126 H126      -83.4306   23.5570  -74.8471 H         1 UNK         0.0793 
    127 H127      -82.2711   25.5635  -73.8870 H         1 UNK         0.2896 
@<TRIPOS>BOND
     1    1    2 1    
     2    1   67 1    
     3    1   68 1    
     4    1   69 1    
     5    2    3 2    
     6    2    4 am   BACKBONE|DICT|INTERRES
     7    4    5 1    
     8    4   70 1    
     9    5    6 1    
    10    5   65 1    
    11    5   71 1    
    12    6    7 1    
    13    6   72 1    
    14    6   73 1    
    15    7    8 1    
    16    8    9 1    
    17    8   74 1    
    18    8   75 1    
    19    9   10 ar   
    20    9   14 ar   
    21   10   11 ar   
    22   10   76 1    
    23   11   12 ar   
    24   11   48 1    
    25   12   13 ar   
    26   12   77 1    
    27   13   14 ar   
    28   13   15 1    
    29   14   78 1    
    30   15   16 1    
    31   15   79 1    
    32   15   80 1    
    33   16   17 1    
    34   17   18 1    
    35   17   81 1    
    36   17   82 1    
    37   18   19 1    
    38   18   22 1    
    39   18   83 1    
    40   19   20 am   BACKBONE|DICT|INTERRES
    41   19   21 2    
    42   20   84 1    
    43   20   85 1    
    44   22   23 am   BACKBONE|DICT|INTERRES
    45   22   86 1    
    46   23   24 2    
    47   23   25 1    
    48   25   26 1    
    49   25   27 1    
    50   25   87 1    
    51   26   88 1    
    52   26   89 1    
    53   26   90 1    
    54   27   28 am   BACKBONE|DICT|INTERRES
    55   27   91 1    
    56   28   29 2    
    57   28   30 1    
    58   30   31 1    
    59   30   32 1    
    60   30   92 1    
    61   31   93 1    
    62   31   94 1    
    63   31   95 1    
    64   32   33 am   BACKBONE|DICT|INTERRES
    65   32   96 1    
    66   33   34 2    
    67   33   35 1    
    68   35   36 1    
    69   35   37 1    
    70   35   97 1    
    71   36   98 1    
    72   36   99 1    
    73   36  100 1    
    74   37   38 am   BACKBONE|DICT|INTERRES
    75   37  101 1    
    76   38   39 2    
    77   38   40 1    
    78   40   41 1    
    79   40   42 1    
    80   40  102 1    
    81   41  103 1    
    82   41  104 1    
    83   41  105 1    
    84   42   43 am   BACKBONE|DICT|INTERRES
    85   42  106 1    
    86   43   44 2    
    87   43   45 1    
    88   45   46 1    
    89   45   49 1    
    90   45  107 1    
    91   46   47 1    
    92   46  108 1    
    93   46  109 1    
    94   47   48 1    
    95   48  110 1    
    96   48  111 1    
    97   49   50 am   BACKBONE|DICT|INTERRES
    98   49  112 1    
    99   50   51 2    
   100   50   52 1    
   101   52   53 1    
   102   52   54 1    
   103   52  113 1    
   104   53  114 1    
   105   53  115 1    
   106   53  116 1    
   107   54   55 am   BACKBONE|DICT|INTERRES
   108   54  117 1    
   109   55   56 2    
   110   55   57 1    
   111   57   58 1    
   112   57   59 1    
   113   57  118 1    
   114   58  119 1    
   115   58  120 1    
   116   58  121 1    
   117   59   60 am   BACKBONE|DICT|INTERRES
   118   59  122 1    
   119   60   61 2    
   120   60   62 1    
   121   62   63 1    
   122   62   64 1    
   123   62  123 1    
   124   63  124 1    
   125   63  125 1    
   126   63  126 1    
   127   64   65 am   BACKBONE|DICT|INTERRES
   128   64  127 1    
   129   65   66 2    
@<TRIPOS>SUBSTRUCTURE
     1 UNK         1 GROUP             0       ****    0 ROOT    
