@<TRIPOS>MOLECULE
3R135
127   129    1
SMALL
USER_CHARGES


@<TRIPOS>ATOM
      1 CA        -83.1677   30.8295  -74.9066 C.3       0 UNK        -0.1998 
      2 C         -82.1846   29.7515  -74.4760 C.2       0 UNK         0.4909 
      3 O         -81.3574   29.3213  -75.2801 O.2       0 UNK        -0.5240 
      4 N         -82.2631   29.3196  -73.2113 N.am      1 UNK        -0.4739 
      5 CA        -81.4187   28.2696  -72.6322 C.3       1 UNK         0.0864 
      6 C6        -81.4600   28.2668  -71.0810 C.3       11 UNK        -0.0881 
      7 S7        -81.1053   29.9092  -70.3583 S.3       11 UNK        -0.2682 
      8 C8        -79.3896   29.7297  -69.7618 C.3       11 UNK         0.0289 
      9 C9        -78.3918   29.3724  -70.8589 C.ar      11 UNK        -0.0687 
     10 C10       -77.4463   28.3674  -70.6317 C.ar      11 UNK        -0.0823 
     11 C11       -76.5335   28.0134  -71.6278 C.ar      11 UNK        -0.0830 
     12 C12       -76.5891   28.6548  -72.8666 C.ar      11 UNK        -0.1021 
     13 C13       -77.4941   29.6958  -73.0976 C.ar      11 UNK        -0.0753 
     14 C14       -78.3883   30.0521  -72.0835 C.ar      11 UNK        -0.0933 
     15 C15       -77.5427   30.4280  -74.4369 C.3       11 UNK         0.0166 
     16 S16       -75.9222   30.6130  -75.2636 S.3       11 UNK        -0.2615 
     17 C17       -75.1174   31.9717  -74.3472 C.3       11 UNK        -0.0865 
     18 CA        -73.8487   31.6110  -73.5053 C.3       10 UNK         0.0862 
     19 C         -74.0761   31.1660  -72.0246 C.2       10 UNK         0.5551 
     20 N         -75.2310   31.4353  -71.4327 N.am      10 UNK        -0.7319 
     21 O         -73.1668   30.6632  -71.3664 O.2       10 UNK        -0.5018 
     22 N         -72.8158   30.8592  -74.2486 N.am      10 UNK        -0.4509 
     23 C         -72.6491   29.5284  -74.3046 C.2       10 UNK         0.4899 
     24 O         -73.4239   28.6986  -73.8290 O.2       10 UNK        -0.4839 
     25 CA        -71.3536   29.0426  -74.9704 C.3       9 UNK         0.0222 
     26 CB        -70.1377   29.4133  -74.0900 C.3       9 UNK        -0.1966 
     27 N         -71.4300   27.5923  -75.1629 N.am      9 UNK        -0.4218 
     28 C         -70.5338   26.8275  -75.8004 C.2       9 UNK         0.5020 
     29 O         -69.5287   27.2653  -76.3625 O.2       9 UNK        -0.5274 
     30 CA        -70.8044   25.3160  -75.8242 C.3       8 UNK         0.0270 
     31 CB        -70.8832   24.7214  -74.4060 C.3       8 UNK        -0.1976 
     32 N         -72.0329   25.0345  -76.5641 N.am      8 UNK        -0.4313 
     33 C         -72.0882   24.8909  -77.8973 C.2       8 UNK         0.5041 
     34 O         -71.0924   24.8660  -78.6226 O.2       8 UNK        -0.5577 
     35 CA        -73.4772   24.7520  -78.5511 C.3       7 UNK         0.0284 
     36 CB        -73.8064   23.2702  -78.7954 C.3       7 UNK        -0.1958 
     37 N         -74.5610   25.3662  -77.7826 N.am      7 UNK        -0.4454 
     38 C         -74.6527   26.6677  -77.4765 C.2       7 UNK         0.5089 
     39 O         -73.8857   27.5292  -77.9068 O.2       7 UNK        -0.5125 
     40 CA        -75.7594   27.0716  -76.4889 C.3       6 UNK         0.0408 
     41 CB        -77.0095   27.5518  -77.2405 C.3       6 UNK        -0.1791 
     42 N         -76.1418   26.0195  -75.5430 N.am      6 UNK        -0.4762 
     43 C         -75.3279   25.4255  -74.6568 C.2       6 UNK         0.5007 
     44 O         -74.1207   25.6523  -74.5739 O.2       6 UNK        -0.5032 
     45 CA        -75.9716   24.3492  -73.7639 C.3       5 UNK         0.0783 
     46 C46       -76.9256   24.9610  -72.7036 C.3       11 UNK        -0.0857 
     47 S47       -76.1083   25.2972  -71.1122 S.3       11 UNK        -0.2512 
     48 C48       -75.4513   26.9771  -71.3570 C.3       11 UNK         0.0225 
     49 N         -76.6647   23.3758  -74.6058 N.am      5 UNK        -0.4615 
     50 C         -76.0670   22.3929  -75.2909 C.2       4 UNK         0.5053 
     51 O         -74.8664   22.1350  -75.2117 O.2       4 UNK        -0.5105 
     52 CA        -76.9558   21.5604  -76.2332 C.3       4 UNK         0.0263 
     53 CB        -77.4105   20.2672  -75.5381 C.3       4 UNK        -0.1981 
     54 N         -78.1334   22.2899  -76.7148 N.am      4 UNK        -0.4224 
     55 C         -78.0867   23.3404  -77.5463 C.2       3 UNK         0.4895 
     56 O         -77.0467   23.7877  -78.0276 O.2       3 UNK        -0.5091 
     57 CA        -79.4211   24.0432  -77.8462 C.3       3 UNK         0.0250 
     58 CB        -80.1672   23.3252  -78.9821 C.3       3 UNK        -0.1996 
     59 N         -80.3017   24.1698  -76.6772 N.am      3 UNK        -0.4254 
     60 C         -79.9846   24.8276  -75.5535 C.2       2 UNK         0.5004 
     61 O         -78.8812   25.3378  -75.3433 O.2       2 UNK        -0.5226 
     62 CA        -81.0563   24.9035  -74.4638 C.3       2 UNK         0.0269 
     63 CB        -80.9582   23.7037  -73.5061 C.3       2 UNK        -0.1926 
     64 N         -80.8523   26.1473  -73.7269 N.am      2 UNK        -0.4687 
     65 C         -81.8261   26.8978  -73.2043 C.2       1 UNK         0.5165 
     66 O         -83.0108   26.5539  -73.1699 O.2       1 UNK        -0.5079 
     67 H67       -83.7824   30.4687  -75.7307 H         1 UNK         0.0900 
     68 H68       -82.6291   31.7145  -75.2445 H         1 UNK         0.0900 
     69 H69       -83.8300   31.1257  -74.0933 H         1 UNK         0.0900 
     70 H70       -82.9650   29.7006  -72.5933 H         1 UNK         0.2959 
     71 H71       -80.3916   28.4677  -72.9421 H         1 UNK         0.1079 
     72 H72       -82.4453   27.9578  -70.7262 H         1 UNK         0.0837 
     73 H73       -80.7534   27.5361  -70.6827 H         1 UNK         0.0837 
     74 H74       -79.0793   30.6688  -69.3022 H         1 UNK         0.0685 
     75 H75       -79.3780   28.9796  -68.9693 H         1 UNK         0.0685 
     76 H76       -77.4127   27.8603  -69.6769 H         1 UNK         0.1434 
     77 H77       -75.8972   28.3641  -73.6423 H         1 UNK         0.1329 
     78 H78       -79.1034   30.8451  -72.2549 H         1 UNK         0.1335 
     79 H79       -78.2035   29.8682  -75.0997 H         1 UNK         0.0680 
     80 H80       -77.9936   31.4147  -74.3206 H         1 UNK         0.0680 
     81 H81       -75.8572   32.5085  -73.7534 H         1 UNK         0.1032 
     82 H82       -74.8163   32.6942  -75.1070 H         1 UNK         0.1032 
     83 H83       -73.3567   32.5721  -73.3500 H         1 UNK         0.0461 
     84 H84       -76.0043   31.8222  -71.9463 H         1 UNK         0.3453 
     85 H85       -75.3563   31.1624  -70.4717 H         1 UNK         0.3453 
     86 H86       -72.1003   31.4342  -74.6682 H         1 UNK         0.2984 
     87 H87       -71.2667   29.5195  -75.9485 H         1 UNK         0.0554 
     88 H88       -69.1933   29.1413  -74.5603 H         1 UNK         0.0847 
     89 H89       -70.1826   28.9163  -73.1200 H         1 UNK         0.0847 
     90 H90       -70.0921   30.4863  -73.9014 H         1 UNK         0.0847 
     91 H91       -72.2607   27.1697  -74.7570 H         1 UNK         0.3141 
     92 H92       -69.9635   24.8338  -76.3278 H         1 UNK         0.0743 
     93 H93       -71.6860   25.1580  -73.8123 H         1 UNK         0.0784 
     94 H94       -71.0446   23.6438  -74.4398 H         1 UNK         0.0784 
     95 H95       -69.9522   24.8923  -73.8641 H         1 UNK         0.0784 
     96 H96       -72.8996   25.0917  -76.0366 H         1 UNK         0.3213 
     97 H97       -73.4329   25.2583  -79.5176 H         1 UNK         0.0855 
     98 H98       -73.9125   22.7217  -77.8586 H         1 UNK         0.0814 
     99 H99       -73.0183   22.7836  -79.3718 H         1 UNK         0.0814 
    100 H100      -74.7331   23.1566  -79.3580 H         1 UNK         0.0814 
    101 H101      -75.3058   24.7517  -77.4706 H         1 UNK         0.3105 
    102 H102      -75.3662   27.8989  -75.8992 H         1 UNK         0.0547 
    103 H103      -76.7717   28.3920  -77.8941 H         1 UNK         0.0837 
    104 H104      -77.4321   26.7611  -77.8607 H         1 UNK         0.0837 
    105 H105      -77.7839   27.8865  -76.5504 H         1 UNK         0.0837 
    106 H106      -77.1269   25.7579  -75.5380 H         1 UNK         0.3020 
    107 H107      -75.1631   23.8243  -73.2489 H         1 UNK         0.1245 
    108 H108      -77.7196   24.2508  -72.4705 H         1 UNK         0.0781 
    109 H109      -77.4439   25.8506  -73.0652 H         1 UNK         0.0781 
    110 H110      -74.7167   26.9619  -72.1631 H         1 UNK         0.0836 
    111 H111      -74.9012   27.2713  -70.4622 H         1 UNK         0.0836 
    112 H112      -77.6419   23.5623  -74.7826 H         1 UNK         0.3022 
    113 H113      -76.3489   21.2899  -77.1002 H         1 UNK         0.0747 
    114 H114      -77.9757   19.6286  -76.2173 H         1 UNK         0.0793 
    115 H115      -76.5527   19.6887  -75.1917 H         1 UNK         0.0793 
    116 H116      -78.0367   20.4731  -74.6690 H         1 UNK         0.0793 
    117 H117      -79.0333   21.9893  -76.3694 H         1 UNK         0.3047 
    118 H118      -79.1844   25.0539  -78.1846 H         1 UNK         0.0822 
    119 H119      -81.0603   23.8748  -79.2801 H         1 UNK         0.0807 
    120 H120      -80.4720   22.3179  -78.6954 H         1 UNK         0.0807 
    121 H121      -79.5356   23.2350  -79.8672 H         1 UNK         0.0807 
    122 H122      -81.2236   23.7658  -76.7629 H         1 UNK         0.2946 
    123 H123      -82.0384   24.9138  -74.9429 H         1 UNK         0.1144 
    124 H124      -79.9888   23.6598  -73.0098 H         1 UNK         0.0793 
    125 H125      -81.0973   22.7623  -74.0391 H         1 UNK         0.0793 
    126 H126      -81.7254   23.7528  -72.7331 H         1 UNK         0.0793 
    127 H127      -79.9073   26.5072  -73.7828 H         1 UNK         0.2896 
@<TRIPOS>BOND
     1    1    2 1    
     2    1   67 1    
     3    1   68 1    
     4    1   69 1    
     5    2    3 2    
     6    2    4 am   BACKBONE|DICT|INTERRES
     7    4    5 1    
     8    4   70 1    
     9    5    6 1    
    10    5   65 1    
    11    5   71 1    
    12    6    7 1    
    13    6   72 1    
    14    6   73 1    
    15    7    8 1    
    16    8    9 1    
    17    8   74 1    
    18    8   75 1    
    19    9   10 ar   
    20    9   14 ar   
    21   10   11 ar   
    22   10   76 1    
    23   11   12 ar   
    24   11   48 1    
    25   12   13 ar   
    26   12   77 1    
    27   13   14 ar   
    28   13   15 1    
    29   14   78 1    
    30   15   16 1    
    31   15   79 1    
    32   15   80 1    
    33   16   17 1    
    34   17   18 1    
    35   17   81 1    
    36   17   82 1    
    37   18   19 1    
    38   18   22 1    
    39   18   83 1    
    40   19   20 am   BACKBONE|DICT|INTERRES
    41   19   21 2    
    42   20   84 1    
    43   20   85 1    
    44   22   23 am   BACKBONE|DICT|INTERRES
    45   22   86 1    
    46   23   24 2    
    47   23   25 1    
    48   25   26 1    
    49   25   27 1    
    50   25   87 1    
    51   26   88 1    
    52   26   89 1    
    53   26   90 1    
    54   27   28 am   BACKBONE|DICT|INTERRES
    55   27   91 1    
    56   28   29 2    
    57   28   30 1    
    58   30   31 1    
    59   30   32 1    
    60   30   92 1    
    61   31   93 1    
    62   31   94 1    
    63   31   95 1    
    64   32   33 am   BACKBONE|DICT|INTERRES
    65   32   96 1    
    66   33   34 2    
    67   33   35 1    
    68   35   36 1    
    69   35   37 1    
    70   35   97 1    
    71   36   98 1    
    72   36   99 1    
    73   36  100 1    
    74   37   38 am   BACKBONE|DICT|INTERRES
    75   37  101 1    
    76   38   39 2    
    77   38   40 1    
    78   40   41 1    
    79   40   42 1    
    80   40  102 1    
    81   41  103 1    
    82   41  104 1    
    83   41  105 1    
    84   42   43 am   BACKBONE|DICT|INTERRES
    85   42  106 1    
    86   43   44 2    
    87   43   45 1    
    88   45   46 1    
    89   45   49 1    
    90   45  107 1    
    91   46   47 1    
    92   46  108 1    
    93   46  109 1    
    94   47   48 1    
    95   48  110 1    
    96   48  111 1    
    97   49   50 am   BACKBONE|DICT|INTERRES
    98   49  112 1    
    99   50   51 2    
   100   50   52 1    
   101   52   53 1    
   102   52   54 1    
   103   52  113 1    
   104   53  114 1    
   105   53  115 1    
   106   53  116 1    
   107   54   55 am   BACKBONE|DICT|INTERRES
   108   54  117 1    
   109   55   56 2    
   110   55   57 1    
   111   57   58 1    
   112   57   59 1    
   113   57  118 1    
   114   58  119 1    
   115   58  120 1    
   116   58  121 1    
   117   59   60 am   BACKBONE|DICT|INTERRES
   118   59  122 1    
   119   60   61 2    
   120   60   62 1    
   121   62   63 1    
   122   62   64 1    
   123   62  123 1    
   124   63  124 1    
   125   63  125 1    
   126   63  126 1    
   127   64   65 am   BACKBONE|DICT|INTERRES
   128   64  127 1    
   129   65   66 2    
@<TRIPOS>SUBSTRUCTURE
     1 UNK         1 GROUP             0       ****    0 ROOT    
