@<TRIPOS>MOLECULE
3R135
127   129    1
SMALL
USER_CHARGES


@<TRIPOS>ATOM
      1 CA        -84.6279   24.5869  -73.6437 C.3       0 UNK        -0.1998 
      2 C         -83.9658   25.9304  -73.3763 C.2       0 UNK         0.4909 
      3 O         -84.6562   26.9439  -73.2656 O.2       0 UNK        -0.5240 
      4 N         -82.6341   25.9457  -73.2721 N.am      1 UNK        -0.4739 
      5 CA        -81.8096   27.1314  -73.0523 C.3       1 UNK         0.0864 
      6 C6        -81.6957   27.4715  -71.5453 C.3       11 UNK        -0.0881 
      7 S7        -81.0895   29.1658  -71.2355 S.3       11 UNK        -0.2682 
      8 C8        -79.9122   28.8958  -69.8737 C.3       11 UNK         0.0289 
      9 C9        -78.5535   28.4021  -70.3549 C.ar      11 UNK        -0.0687 
     10 C10       -78.2688   27.0340  -70.3987 C.ar      11 UNK        -0.0823 
     11 C11       -76.9993   26.5802  -70.7707 C.ar      11 UNK        -0.0830 
     12 C12       -76.0043   27.5092  -71.0897 C.ar      11 UNK        -0.1021 
     13 C13       -76.2708   28.8809  -71.0359 C.ar      11 UNK        -0.0753 
     14 C14       -77.5520   29.3199  -70.6862 C.ar      11 UNK        -0.0933 
     15 C15       -75.1600   29.8925  -71.2778 C.3       11 UNK         0.0166 
     16 S16       -74.9833   30.3115  -73.0358 S.3       11 UNK        -0.2615 
     17 C17       -74.0305   31.8605  -72.9002 C.3       11 UNK        -0.0865 
     18 CA        -73.2373   32.1996  -74.1873 C.3       10 UNK         0.0862 
     19 C         -72.6033   33.6135  -74.0631 C.2       10 UNK         0.5551 
     20 N         -73.2821   34.6431  -74.5500 N.am      10 UNK        -0.7319 
     21 O         -71.5298   33.7861  -73.4884 O.2       10 UNK        -0.5018 
     22 N         -72.2498   31.1545  -74.4957 N.am      10 UNK        -0.4509 
     23 C         -71.4662   31.1189  -75.5818 C.2       10 UNK         0.4899 
     24 O         -71.5269   31.9325  -76.5043 O.2       10 UNK        -0.4839 
     25 CA        -70.4324   29.9811  -75.6580 C.3       9 UNK         0.0222 
     26 CB        -69.0704   30.4633  -75.1321 C.3       9 UNK        -0.1966 
     27 N         -70.8338   28.7734  -74.9288 N.am      9 UNK        -0.4218 
     28 C         -71.7859   27.9258  -75.3396 C.2       9 UNK         0.5020 
     29 O         -72.4471   28.0766  -76.3696 O.2       9 UNK        -0.5274 
     30 CA        -72.0580   26.7140  -74.4333 C.3       8 UNK         0.0270 
     31 CB        -73.3078   26.9487  -73.5707 C.3       8 UNK        -0.1976 
     32 N         -72.2464   25.4980  -75.2215 N.am      8 UNK        -0.4313 
     33 C         -71.2785   24.8557  -75.8891 C.2       8 UNK         0.5041 
     34 O         -70.0913   25.1838  -75.8536 O.2       8 UNK        -0.5577 
     35 CA        -71.6923   23.6275  -76.7204 C.3       7 UNK         0.0284 
     36 CB        -71.2486   22.3311  -76.0225 C.3       7 UNK        -0.1958 
     37 N         -73.1344   23.5602  -76.9681 N.am      7 UNK        -0.4454 
     38 C         -73.8017   24.2823  -77.8739 C.2       7 UNK         0.5089 
     39 O         -73.2589   25.0706  -78.6479 O.2       7 UNK        -0.5125 
     40 CA        -75.3305   24.1059  -77.9315 C.3       6 UNK         0.0408 
     41 CB        -75.7120   22.8991  -78.8090 C.3       6 UNK        -0.1791 
     42 N         -76.0216   24.0507  -76.6337 N.am      6 UNK        -0.4762 
     43 C         -75.9507   23.1274  -75.6615 C.2       6 UNK         0.5007 
     44 O         -75.1419   22.1986  -75.6513 O.2       6 UNK        -0.5032 
     45 CA        -76.9893   23.2352  -74.5274 C.3       5 UNK         0.0783 
     46 C46       -76.5571   24.2619  -73.4520 C.3       11 UNK        -0.0857 
     47 S47       -77.6419   24.1649  -71.9909 S.3       11 UNK        -0.2512 
     48 C48       -76.6900   25.0895  -70.7455 C.3       11 UNK         0.0225 
     49 N         -78.3294   23.5102  -75.0582 N.am      5 UNK        -0.4615 
     50 C         -79.0340   22.6709  -75.8319 C.2       4 UNK         0.5053 
     51 O         -78.6761   21.5258  -76.1080 O.2       4 UNK        -0.5105 
     52 CA        -80.3510   23.2044  -76.4154 C.3       4 UNK         0.0263 
     53 CB        -81.5142   22.9865  -75.4340 C.3       4 UNK        -0.1981 
     54 N         -80.2399   24.6243  -76.7565 N.am      4 UNK        -0.4224 
     55 C         -79.6914   25.0817  -77.8923 C.2       3 UNK         0.4895 
     56 O         -79.3144   24.3540  -78.8111 O.2       3 UNK        -0.5091 
     57 CA        -79.5282   26.6060  -78.0385 C.3       3 UNK         0.0250 
     58 CB        -80.7234   27.2023  -78.7994 C.3       3 UNK        -0.1996 
     59 N         -79.3712   27.3076  -76.7621 N.am      3 UNK        -0.4254 
     60 C         -78.3036   27.2030  -75.9578 C.2       2 UNK         0.5004 
     61 O         -77.3152   26.5183  -76.2160 O.2       2 UNK        -0.5226 
     62 CA        -78.3763   27.9512  -74.6158 C.3       2 UNK         0.0269 
     63 CB        -77.9015   29.3999  -74.7944 C.3       2 UNK        -0.1926 
     64 N         -79.7101   27.9606  -74.0053 N.am      2 UNK        -0.4687 
     65 C         -80.4461   26.8791  -73.7193 C.2       1 UNK         0.5165 
     66 O         -80.1006   25.7257  -73.9940 O.2       1 UNK        -0.5079 
     67 H67       -83.9169   23.7631  -73.5851 H         1 UNK         0.0900 
     68 H68       -85.0766   24.5806  -74.6366 H         1 UNK         0.0900 
     69 H69       -85.4149   24.4040  -72.9125 H         1 UNK         0.0900 
     70 H70       -82.0917   25.1025  -73.4123 H         1 UNK         0.2959 
     71 H71       -82.2760   27.9699  -73.5753 H         1 UNK         0.1079 
     72 H72       -82.6795   27.4064  -71.0778 H         1 UNK         0.0837 
     73 H73       -81.0804   26.7338  -71.0304 H         1 UNK         0.0837 
     74 H74       -79.7858   29.8377  -69.3377 H         1 UNK         0.0685 
     75 H75       -80.3389   28.1986  -69.1509 H         1 UNK         0.0685 
     76 H76       -79.0256   26.3146  -70.1191 H         1 UNK         0.1434 
     77 H77       -75.0109   27.1684  -71.3414 H         1 UNK         0.1329 
     78 H78       -77.7596   30.3800  -70.6342 H         1 UNK         0.1335 
     79 H79       -75.3631   30.8010  -70.7082 H         1 UNK         0.0680 
     80 H80       -74.2108   29.5044  -70.9049 H         1 UNK         0.0680 
     81 H81       -73.3526   31.7963  -72.0464 H         1 UNK         0.1032 
     82 H82       -74.7382   32.6586  -72.6661 H         1 UNK         0.1032 
     83 H83       -73.9410   32.2205  -75.0222 H         1 UNK         0.0461 
     84 H84       -72.8955   35.5702  -74.4641 H         1 UNK         0.3453 
     85 H85       -74.1678   34.5114  -75.0136 H         1 UNK         0.3453 
     86 H86       -72.1322   30.4394  -73.7953 H         1 UNK         0.2984 
     87 H87       -70.3122   29.7170  -76.7110 H         1 UNK         0.0554 
     88 H88       -68.3037   29.6972  -75.2498 H         1 UNK         0.0847 
     89 H89       -69.1162   30.7362  -74.0769 H         1 UNK         0.0847 
     90 H90       -68.7312   31.3439  -75.6797 H         1 UNK         0.0847 
     91 H91       -70.3354   28.5712  -74.0735 H         1 UNK         0.3141 
     92 H92       -71.2029   26.5595  -73.7714 H         1 UNK         0.0743 
     93 H93       -73.1713   27.8132  -72.9204 H         1 UNK         0.0784 
     94 H94       -74.1941   27.1364  -74.1795 H         1 UNK         0.0784 
     95 H95       -73.5141   26.0908  -72.9307 H         1 UNK         0.0784 
     96 H96       -73.1953   25.1846  -75.3555 H         1 UNK         0.3213 
     97 H97       -71.1765   23.6946  -77.6808 H         1 UNK         0.0855 
     98 H98       -70.1723   22.3315  -75.8439 H         1 UNK         0.0814 
     99 H99       -71.4741   21.4556  -76.6316 H         1 UNK         0.0814 
    100 H100      -71.7400   22.2042  -75.0569 H         1 UNK         0.0814 
    101 H101      -73.6836   22.9228  -76.3927 H         1 UNK         0.3105 
    102 H102      -75.7245   24.9978  -78.4215 H         1 UNK         0.0547 
    103 H103      -75.2755   22.9874  -79.8046 H         1 UNK         0.0837 
    104 H104      -75.3627   21.9577  -78.3838 H         1 UNK         0.0837 
    105 H105      -76.7929   22.8292  -78.9341 H         1 UNK         0.0837 
    106 H106      -76.6573   24.8331  -76.4778 H         1 UNK         0.3020 
    107 H107      -77.0270   22.2509  -74.0542 H         1 UNK         0.1245 
    108 H108      -76.5746   25.2798  -73.8440 H         1 UNK         0.0781 
    109 H109      -75.5315   24.0681  -73.1320 H         1 UNK         0.0781 
    110 H110      -75.6230   24.9033  -70.8763 H         1 UNK         0.0836 
    111 H111      -76.9431   24.6992  -69.7588 H         1 UNK         0.0836 
    112 H112      -78.7393   24.4031  -74.8076 H         1 UNK         0.3022 
    113 H113      -80.5707   22.6392  -77.3239 H         1 UNK         0.0747 
    114 H114      -82.4453   23.3997  -75.8220 H         1 UNK         0.0793 
    115 H115      -81.6783   21.9218  -75.2633 H         1 UNK         0.0793 
    116 H116      -81.3189   23.4395  -74.4626 H         1 UNK         0.0793 
    117 H117      -80.4636   25.2829  -76.0212 H         1 UNK         0.3047 
    118 H118      -78.6255   26.7801  -78.6284 H         1 UNK         0.0822 
    119 H119      -80.5835   28.2670  -78.9876 H         1 UNK         0.0807 
    120 H120      -81.6570   27.0768  -78.2494 H         1 UNK         0.0807 
    121 H121      -80.8491   26.7181  -79.7690 H         1 UNK         0.0807 
    122 H122      -80.1356   27.8966  -76.4651 H         1 UNK         0.2946 
    123 H123      -77.7016   27.4496  -73.9182 H         1 UNK         0.1144 
    124 H124      -77.8611   29.9216  -73.8380 H         1 UNK         0.0793 
    125 H125      -78.5576   29.9649  -75.4573 H         1 UNK         0.0793 
    126 H126      -76.8989   29.4305  -75.2235 H         1 UNK         0.0793 
    127 H127      -80.0588   28.8622  -73.7103 H         1 UNK         0.2896 
@<TRIPOS>BOND
     1    1    2 1    
     2    1   67 1    
     3    1   68 1    
     4    1   69 1    
     5    2    3 2    
     6    2    4 am   BACKBONE|DICT|INTERRES
     7    4    5 1    
     8    4   70 1    
     9    5    6 1    
    10    5   65 1    
    11    5   71 1    
    12    6    7 1    
    13    6   72 1    
    14    6   73 1    
    15    7    8 1    
    16    8    9 1    
    17    8   74 1    
    18    8   75 1    
    19    9   10 ar   
    20    9   14 ar   
    21   10   11 ar   
    22   10   76 1    
    23   11   12 ar   
    24   11   48 1    
    25   12   13 ar   
    26   12   77 1    
    27   13   14 ar   
    28   13   15 1    
    29   14   78 1    
    30   15   16 1    
    31   15   79 1    
    32   15   80 1    
    33   16   17 1    
    34   17   18 1    
    35   17   81 1    
    36   17   82 1    
    37   18   19 1    
    38   18   22 1    
    39   18   83 1    
    40   19   20 am   BACKBONE|DICT|INTERRES
    41   19   21 2    
    42   20   84 1    
    43   20   85 1    
    44   22   23 am   BACKBONE|DICT|INTERRES
    45   22   86 1    
    46   23   24 2    
    47   23   25 1    
    48   25   26 1    
    49   25   27 1    
    50   25   87 1    
    51   26   88 1    
    52   26   89 1    
    53   26   90 1    
    54   27   28 am   BACKBONE|DICT|INTERRES
    55   27   91 1    
    56   28   29 2    
    57   28   30 1    
    58   30   31 1    
    59   30   32 1    
    60   30   92 1    
    61   31   93 1    
    62   31   94 1    
    63   31   95 1    
    64   32   33 am   BACKBONE|DICT|INTERRES
    65   32   96 1    
    66   33   34 2    
    67   33   35 1    
    68   35   36 1    
    69   35   37 1    
    70   35   97 1    
    71   36   98 1    
    72   36   99 1    
    73   36  100 1    
    74   37   38 am   BACKBONE|DICT|INTERRES
    75   37  101 1    
    76   38   39 2    
    77   38   40 1    
    78   40   41 1    
    79   40   42 1    
    80   40  102 1    
    81   41  103 1    
    82   41  104 1    
    83   41  105 1    
    84   42   43 am   BACKBONE|DICT|INTERRES
    85   42  106 1    
    86   43   44 2    
    87   43   45 1    
    88   45   46 1    
    89   45   49 1    
    90   45  107 1    
    91   46   47 1    
    92   46  108 1    
    93   46  109 1    
    94   47   48 1    
    95   48  110 1    
    96   48  111 1    
    97   49   50 am   BACKBONE|DICT|INTERRES
    98   49  112 1    
    99   50   51 2    
   100   50   52 1    
   101   52   53 1    
   102   52   54 1    
   103   52  113 1    
   104   53  114 1    
   105   53  115 1    
   106   53  116 1    
   107   54   55 am   BACKBONE|DICT|INTERRES
   108   54  117 1    
   109   55   56 2    
   110   55   57 1    
   111   57   58 1    
   112   57   59 1    
   113   57  118 1    
   114   58  119 1    
   115   58  120 1    
   116   58  121 1    
   117   59   60 am   BACKBONE|DICT|INTERRES
   118   59  122 1    
   119   60   61 2    
   120   60   62 1    
   121   62   63 1    
   122   62   64 1    
   123   62  123 1    
   124   63  124 1    
   125   63  125 1    
   126   63  126 1    
   127   64   65 am   BACKBONE|DICT|INTERRES
   128   64  127 1    
   129   65   66 2    
@<TRIPOS>SUBSTRUCTURE
     1 UNK         1 GROUP             0       ****    0 ROOT    
