@<TRIPOS>MOLECULE
3R135
127   129    1
SMALL
USER_CHARGES


@<TRIPOS>ATOM
      1 CA        -81.2689   30.5094  -76.8923 C.3       0 UNK        -0.1998 
      2 C         -80.7838   29.7736  -75.6523 C.2       0 UNK         0.4909 
      3 O         -79.6202   29.9160  -75.2797 O.2       0 UNK        -0.5240 
      4 N         -81.6676   28.9905  -75.0250 N.am      1 UNK        -0.4739 
      5 CA        -81.3878   28.1452  -73.8591 C.3       1 UNK         0.0864 
      6 C6        -82.2161   28.5690  -72.6175 C.3       11 UNK        -0.0881 
      7 S7        -81.9115   30.3005  -72.1223 S.3       11 UNK        -0.2682 
      8 C8        -80.7833   30.1111  -70.7038 C.3       11 UNK         0.0289 
      9 C9        -79.4586   29.4592  -71.0816 C.ar      11 UNK        -0.0687 
     10 C10       -79.0667   28.2620  -70.4735 C.ar      11 UNK        -0.0823 
     11 C11       -77.8436   27.6632  -70.7913 C.ar      11 UNK        -0.0830 
     12 C12       -77.0179   28.2766  -71.7408 C.ar      11 UNK        -0.1021 
     13 C13       -77.3901   29.4740  -72.3525 C.ar      11 UNK        -0.0753 
     14 C14       -78.6110   30.0642  -72.0157 C.ar      11 UNK        -0.0933 
     15 C15       -76.4755   30.1198  -73.3834 C.3       11 UNK         0.0166 
     16 S16       -75.3569   31.3438  -72.6306 S.3       11 UNK        -0.2615 
     17 C17       -74.0905   30.2883  -71.8386 C.3       11 UNK        -0.0865 
     18 CA        -72.7104   30.3881  -72.5342 C.3       10 UNK         0.0862 
     19 C         -71.6285   29.6238  -71.7266 C.2       10 UNK         0.5551 
     20 N         -70.8551   30.3228  -70.9074 N.am      10 UNK        -0.7319 
     21 O         -71.5182   28.4018  -71.8011 O.2       10 UNK        -0.5018 
     22 N         -72.7666   29.9182  -73.9248 N.am      10 UNK        -0.4509 
     23 C         -71.8942   30.2762  -74.8733 C.2       10 UNK         0.4899 
     24 O         -70.9723   31.0744  -74.6927 O.2       10 UNK        -0.4839 
     25 CA        -72.1095   29.6408  -76.2581 C.3       9 UNK         0.0222 
     26 CB        -71.0721   30.0977  -77.3063 C.3       9 UNK        -0.1966 
     27 N         -72.1883   28.1771  -76.2056 N.am      9 UNK        -0.4218 
     28 C         -71.2371   27.3173  -75.8023 C.2       9 UNK         0.5020 
     29 O         -70.1348   27.6642  -75.3754 O.2       9 UNK        -0.5274 
     30 CA        -71.5405   25.8069  -75.9049 C.3       8 UNK         0.0270 
     31 CB        -71.6724   25.1794  -74.5068 C.3       8 UNK        -0.1976 
     32 N         -72.7349   25.4917  -76.6947 N.am      8 UNK        -0.4313 
     33 C         -72.8272   25.6153  -78.0267 C.2       8 UNK         0.5041 
     34 O         -71.8783   25.9166  -78.7515 O.2       8 UNK        -0.5577 
     35 CA        -74.2172   25.4121  -78.6578 C.3       7 UNK         0.0284 
     36 CB        -74.3919   23.9559  -79.1153 C.3       7 UNK        -0.1958 
     37 N         -75.3293   25.7967  -77.7788 N.am      7 UNK        -0.4454 
     38 C         -75.5406   27.0384  -77.3133 C.2       7 UNK         0.5089 
     39 O         -74.8257   28.0017  -77.5872 O.2       7 UNK        -0.5125 
     40 CA        -76.7042   27.2282  -76.3285 C.3       6 UNK         0.0408 
     41 CB        -78.0526   27.2582  -77.0643 C.3       6 UNK        -0.1791 
     42 N         -76.7274   26.1835  -75.3078 N.am      6 UNK        -0.4762 
     43 C         -75.7909   25.9779  -74.3720 C.2       6 UNK         0.5007 
     44 O         -74.8248   26.7220  -74.2005 O.2       6 UNK        -0.5032 
     45 CA        -75.9334   24.6853  -73.5386 C.3       5 UNK         0.0783 
     46 C46       -76.9055   24.8393  -72.3422 C.3       11 UNK        -0.0857 
     47 S47       -76.0830   25.4279  -70.8304 S.3       11 UNK        -0.2512 
     48 C48       -77.4397   26.3803  -70.0610 C.3       11 UNK         0.0225 
     49 N         -76.3471   23.5620  -74.3799 N.am      5 UNK        -0.4615 
     50 C         -75.5741   22.9348  -75.2715 C.2       4 UNK         0.5053 
     51 O         -74.4008   23.2336  -75.4892 O.2       4 UNK        -0.5105 
     52 CA        -76.2315   21.7877  -76.0594 C.3       4 UNK         0.0263 
     53 CB        -76.0479   20.4548  -75.3171 C.3       4 UNK        -0.1981 
     54 N         -77.6591   22.0102  -76.3174 N.am      4 UNK        -0.4224 
     55 C         -78.1286   22.9468  -77.1528 C.2       3 UNK         0.4895 
     56 O         -77.4089   23.7170  -77.7893 O.2       3 UNK        -0.5091 
     57 CA        -79.6589   23.0755  -77.2669 C.3       3 UNK         0.0250 
     58 CB        -80.2471   21.8980  -78.0622 C.3       3 UNK        -0.1996 
     59 N         -80.3824   23.2254  -75.9938 N.am      3 UNK        -0.4254 
     60 C         -80.0868   24.1137  -75.0343 C.2       2 UNK         0.5004 
     61 O         -79.0520   24.7774  -75.0113 O.2       2 UNK        -0.5226 
     62 CA        -81.1004   24.3112  -73.8963 C.3       2 UNK         0.0269 
     63 CB        -80.7245   23.4548  -72.6772 C.3       2 UNK        -0.1926 
     64 N         -81.1204   25.7266  -73.5073 N.am      2 UNK        -0.4687 
     65 C         -81.6924   26.6858  -74.2478 C.2       1 UNK         0.5165 
     66 O         -82.4387   26.4458  -75.2028 O.2       1 UNK        -0.5079 
     67 H67       -82.3142   30.2932  -77.1130 H         1 UNK         0.0900 
     68 H68       -81.1672   31.5852  -76.7524 H         1 UNK         0.0900 
     69 H69       -80.6721   30.2197  -77.7569 H         1 UNK         0.0900 
     70 H70       -82.5877   28.8592  -75.4224 H         1 UNK         0.2959 
     71 H71       -80.3255   28.1963  -73.6082 H         1 UNK         0.1079 
     72 H72       -82.0051   27.9149  -71.7694 H         1 UNK         0.0837 
     73 H73       -83.2841   28.4651  -72.8187 H         1 UNK         0.0837 
     74 H74       -80.5812   31.0974  -70.2843 H         1 UNK         0.0685 
     75 H75       -81.2910   29.5447  -69.9215 H         1 UNK         0.0685 
     76 H76       -79.7105   27.8005  -69.7368 H         1 UNK         0.1434 
     77 H77       -76.0733   27.8303  -72.0096 H         1 UNK         0.1329 
     78 H78       -78.9079   30.9896  -72.4901 H         1 UNK         0.1335 
     79 H79       -75.8878   29.3624  -73.9031 H         1 UNK         0.0680 
     80 H80       -77.0781   30.6138  -74.1472 H         1 UNK         0.0680 
     81 H81       -74.0124   30.6061  -70.7970 H         1 UNK         0.1032 
     82 H82       -74.4162   29.2501  -71.8068 H         1 UNK         0.1032 
     83 H83       -72.4336   31.4448  -72.5505 H         1 UNK         0.0461 
     84 H84       -70.1578   29.8409  -70.3617 H         1 UNK         0.3453 
     85 H85       -70.9444   31.3244  -70.8336 H         1 UNK         0.3453 
     86 H86       -73.4561   29.2103  -74.1330 H         1 UNK         0.2984 
     87 H87       -73.0869   29.9837  -76.6003 H         1 UNK         0.0554 
     88 H88       -71.2769   29.6591  -78.2830 H         1 UNK         0.0847 
     89 H89       -70.0562   29.8221  -77.0214 H         1 UNK         0.0847 
     90 H90       -71.0918   31.1814  -77.4275 H         1 UNK         0.0847 
     91 H91       -73.0625   27.7913  -76.5468 H         1 UNK         0.3141 
     92 H92       -70.6843   25.3432  -76.3993 H         1 UNK         0.0743 
     93 H93       -72.4866   25.6252  -73.9365 H         1 UNK         0.0784 
     94 H94       -71.8509   24.1055  -74.5665 H         1 UNK         0.0784 
     95 H95       -70.7591   25.3240  -73.9281 H         1 UNK         0.0784 
     96 H96       -73.5459   25.1623  -76.1841 H         1 UNK         0.3213 
     97 H97       -74.2673   26.0523  -79.5410 H         1 UNK         0.0855 
     98 H98       -74.3567   23.2634  -78.2747 H         1 UNK         0.0814 
     99 H99       -73.6000   23.6672  -79.8077 H         1 UNK         0.0814 
    100 H100      -75.3410   23.8115  -79.6318 H         1 UNK         0.0814 
    101 H101      -76.0022   25.0695  -77.5492 H         1 UNK         0.3105 
    102 H102      -76.5722   28.1873  -75.8259 H         1 UNK         0.0547 
    103 H103      -78.0830   28.0717  -77.7900 H         1 UNK         0.0837 
    104 H104      -78.2449   26.3292  -77.6015 H         1 UNK         0.0837 
    105 H105      -78.8765   27.4130  -76.3676 H         1 UNK         0.0837 
    106 H106      -77.5312   25.5540  -75.3234 H         1 UNK         0.3020 
    107 H107      -74.9392   24.4431  -73.1548 H         1 UNK         0.1245 
    108 H108      -77.3373   23.8723  -72.0797 H         1 UNK         0.0781 
    109 H109      -77.7537   25.4774  -72.5982 H         1 UNK         0.0781 
    110 H110      -77.1355   26.6467  -69.0480 H         1 UNK         0.0836 
    111 H111      -78.3065   25.7251  -69.9596 H         1 UNK         0.0836 
    112 H112      -77.3230   23.3076  -74.3322 H         1 UNK         0.3022 
    113 H113      -75.7212   21.7121  -77.0216 H         1 UNK         0.0747 
    114 H114      -76.4372   19.6193  -75.8993 H         1 UNK         0.0793 
    115 H115      -74.9913   20.2543  -75.1329 H         1 UNK         0.0793 
    116 H116      -76.5526   20.4558  -74.3501 H         1 UNK         0.0793 
    117 H117      -78.3177   21.4233  -75.8258 H         1 UNK         0.3047 
    118 H118      -79.8502   23.9868  -77.8375 H         1 UNK         0.0822 
    119 H119      -81.3000   22.0616  -78.2928 H         1 UNK         0.0807 
    120 H120      -80.1659   20.9573  -77.5164 H         1 UNK         0.0807 
    121 H121      -79.7276   21.7694  -79.0131 H         1 UNK         0.0807 
    122 H122      -81.2423   22.7018  -75.9114 H         1 UNK         0.2946 
    123 H123      -82.0940   24.0190  -74.2445 H         1 UNK         0.1144 
    124 H124      -81.4519   23.5716  -71.8737 H         1 UNK         0.0793 
    125 H125      -79.7448   23.7202  -72.2805 H         1 UNK         0.0793 
    126 H126      -80.6966   22.3954  -72.9358 H         1 UNK         0.0793 
    127 H127      -80.5014   25.9929  -72.7559 H         1 UNK         0.2896 
@<TRIPOS>BOND
     1    1    2 1    
     2    1   67 1    
     3    1   68 1    
     4    1   69 1    
     5    2    3 2    
     6    2    4 am   BACKBONE|DICT|INTERRES
     7    4    5 1    
     8    4   70 1    
     9    5    6 1    
    10    5   65 1    
    11    5   71 1    
    12    6    7 1    
    13    6   72 1    
    14    6   73 1    
    15    7    8 1    
    16    8    9 1    
    17    8   74 1    
    18    8   75 1    
    19    9   10 ar   
    20    9   14 ar   
    21   10   11 ar   
    22   10   76 1    
    23   11   12 ar   
    24   11   48 1    
    25   12   13 ar   
    26   12   77 1    
    27   13   14 ar   
    28   13   15 1    
    29   14   78 1    
    30   15   16 1    
    31   15   79 1    
    32   15   80 1    
    33   16   17 1    
    34   17   18 1    
    35   17   81 1    
    36   17   82 1    
    37   18   19 1    
    38   18   22 1    
    39   18   83 1    
    40   19   20 am   BACKBONE|DICT|INTERRES
    41   19   21 2    
    42   20   84 1    
    43   20   85 1    
    44   22   23 am   BACKBONE|DICT|INTERRES
    45   22   86 1    
    46   23   24 2    
    47   23   25 1    
    48   25   26 1    
    49   25   27 1    
    50   25   87 1    
    51   26   88 1    
    52   26   89 1    
    53   26   90 1    
    54   27   28 am   BACKBONE|DICT|INTERRES
    55   27   91 1    
    56   28   29 2    
    57   28   30 1    
    58   30   31 1    
    59   30   32 1    
    60   30   92 1    
    61   31   93 1    
    62   31   94 1    
    63   31   95 1    
    64   32   33 am   BACKBONE|DICT|INTERRES
    65   32   96 1    
    66   33   34 2    
    67   33   35 1    
    68   35   36 1    
    69   35   37 1    
    70   35   97 1    
    71   36   98 1    
    72   36   99 1    
    73   36  100 1    
    74   37   38 am   BACKBONE|DICT|INTERRES
    75   37  101 1    
    76   38   39 2    
    77   38   40 1    
    78   40   41 1    
    79   40   42 1    
    80   40  102 1    
    81   41  103 1    
    82   41  104 1    
    83   41  105 1    
    84   42   43 am   BACKBONE|DICT|INTERRES
    85   42  106 1    
    86   43   44 2    
    87   43   45 1    
    88   45   46 1    
    89   45   49 1    
    90   45  107 1    
    91   46   47 1    
    92   46  108 1    
    93   46  109 1    
    94   47   48 1    
    95   48  110 1    
    96   48  111 1    
    97   49   50 am   BACKBONE|DICT|INTERRES
    98   49  112 1    
    99   50   51 2    
   100   50   52 1    
   101   52   53 1    
   102   52   54 1    
   103   52  113 1    
   104   53  114 1    
   105   53  115 1    
   106   53  116 1    
   107   54   55 am   BACKBONE|DICT|INTERRES
   108   54  117 1    
   109   55   56 2    
   110   55   57 1    
   111   57   58 1    
   112   57   59 1    
   113   57  118 1    
   114   58  119 1    
   115   58  120 1    
   116   58  121 1    
   117   59   60 am   BACKBONE|DICT|INTERRES
   118   59  122 1    
   119   60   61 2    
   120   60   62 1    
   121   62   63 1    
   122   62   64 1    
   123   62  123 1    
   124   63  124 1    
   125   63  125 1    
   126   63  126 1    
   127   64   65 am   BACKBONE|DICT|INTERRES
   128   64  127 1    
   129   65   66 2    
@<TRIPOS>SUBSTRUCTURE
     1 UNK         1 GROUP             0       ****    0 ROOT    
