@<TRIPOS>MOLECULE
3R135
127   129    1
SMALL
USER_CHARGES


@<TRIPOS>ATOM
      1 CA        -79.9193   21.4695  -72.3654 C.3       0 UNK        -0.1998 
      2 C         -80.7621   22.6848  -72.7191 C.2       0 UNK         0.4909 
      3 O         -81.4715   22.6658  -73.7255 O.2       0 UNK        -0.5240 
      4 N         -80.6801   23.7485  -71.9093 N.am      1 UNK        -0.4739 
      5 CA        -81.3683   25.0285  -72.1108 C.3       1 UNK         0.0864 
      6 C6        -81.1869   25.9916  -70.9075 C.3       11 UNK        -0.0881 
      7 S7        -79.4630   26.1757  -70.3161 S.3       11 UNK        -0.2682 
      8 C8        -79.4949   27.8538  -69.6120 C.3       11 UNK         0.0289 
      9 C9        -78.7490   28.8608  -70.4779 C.ar      11 UNK        -0.0687 
     10 C10       -79.3059   29.3242  -71.6740 C.ar      11 UNK        -0.0823 
     11 C11       -78.6471   30.2998  -72.4297 C.ar      11 UNK        -0.0830 
     12 C12       -77.4276   30.8119  -71.9794 C.ar      11 UNK        -0.1021 
     13 C13       -76.8433   30.3431  -70.7956 C.ar      11 UNK        -0.0753 
     14 C14       -77.5151   29.3657  -70.0546 C.ar      11 UNK        -0.0933 
     15 C15       -75.5174   30.8843  -70.2532 C.3       11 UNK         0.0166 
     16 S16       -74.5055   31.8452  -71.4331 S.3       11 UNK        -0.2615 
     17 C17       -73.9590   30.5420  -72.5886 C.3       11 UNK        -0.0865 
     18 CA        -72.4263   30.2971  -72.5323 C.3       10 UNK         0.0862 
     19 C         -72.0266   29.3169  -71.3874 C.2       10 UNK         0.5551 
     20 N         -71.5083   28.1307  -71.6827 N.am      10 UNK        -0.7319 
     21 O         -72.1713   29.6424  -70.2123 O.2       10 UNK        -0.5018 
     22 N         -71.9097   29.9277  -73.8597 N.am      10 UNK        -0.4509 
     23 C         -70.6390   30.0558  -74.2571 C.2       10 UNK         0.4899 
     24 O         -69.7491   30.5479  -73.5614 O.2       10 UNK        -0.4839 
     25 CA        -70.3143   29.5114  -75.6623 C.3       9 UNK         0.0222 
     26 CB        -68.8780   29.8437  -76.1094 C.3       9 UNK        -0.1966 
     27 N         -70.5120   28.0605  -75.7324 N.am      9 UNK        -0.4218 
     28 C         -71.6971   27.4446  -75.8287 C.2       9 UNK         0.5020 
     29 O         -72.7744   28.0416  -75.8769 O.2       9 UNK        -0.5274 
     30 CA        -71.6678   25.9142  -75.7889 C.3       8 UNK         0.0270 
     31 CB        -71.8027   25.4194  -74.3385 C.3       8 UNK        -0.1976 
     32 N         -72.7711   25.3674  -76.5775 N.am      8 UNK        -0.4313 
     33 C         -72.6213   24.7103  -77.7333 C.2       8 UNK         0.5041 
     34 O         -71.5331   24.5319  -78.2843 O.2       8 UNK        -0.5577 
     35 CA        -73.8808   24.1101  -78.3763 C.3       7 UNK         0.0284 
     36 CB        -74.2277   22.7684  -77.7107 C.3       7 UNK        -0.1958 
     37 N         -75.0507   24.9907  -78.3524 N.am      7 UNK        -0.4454 
     38 C         -75.1879   26.0849  -79.1148 C.2       7 UNK         0.5089 
     39 O         -74.3076   26.5164  -79.8603 O.2       7 UNK        -0.5125 
     40 CA        -76.5507   26.7982  -79.0738 C.3       6 UNK         0.0408 
     41 CB        -77.5940   26.0284  -79.8996 C.3       6 UNK        -0.1791 
     42 N         -77.0467   26.9809  -77.7114 N.am      6 UNK        -0.4762 
     43 C         -76.5806   27.9002  -76.8532 C.2       6 UNK         0.5007 
     44 O         -75.7387   28.7469  -77.1525 O.2       6 UNK        -0.5032 
     45 CA        -77.1504   27.8594  -75.4178 C.3       5 UNK         0.0783 
     46 C46       -78.4834   28.6464  -75.3254 C.3       11 UNK        -0.0857 
     47 S47       -78.2476   30.4468  -75.1820 S.3       11 UNK        -0.2512 
     48 C48       -79.2613   30.8346  -73.7166 C.3       11 UNK         0.0225 
     49 N         -77.3217   26.4898  -74.9225 N.am      5 UNK        -0.4615 
     50 C         -76.3706   25.5507  -74.8296 C.2       4 UNK         0.5053 
     51 O         -75.1855   25.7330  -75.1003 O.2       4 UNK        -0.5105 
     52 CA        -76.8393   24.1446  -74.4253 C.3       4 UNK         0.0263 
     53 CB        -76.9848   24.0274  -72.8998 C.3       4 UNK        -0.1981 
     54 N         -78.0982   23.7823  -75.0825 N.am      4 UNK        -0.4224 
     55 C         -78.2217   23.5532  -76.3984 C.2       3 UNK         0.4895 
     56 O         -77.2787   23.5751  -77.1871 O.2       3 UNK        -0.5091 
     57 CA        -79.6397   23.3083  -76.9362 C.3       3 UNK         0.0250 
     58 CB        -80.0518   21.8400  -76.7477 C.3       3 UNK        -0.1996 
     59 N         -80.6248   24.1962  -76.3143 N.am      3 UNK        -0.4254 
     60 C         -80.6835   25.5165  -76.5505 C.2       2 UNK         0.5004 
     61 O         -79.9524   26.0967  -77.3530 O.2       2 UNK        -0.5226 
     62 CA        -81.6912   26.3418  -75.7276 C.3       2 UNK         0.0269 
     63 CB        -83.0347   26.4403  -76.4669 C.3       2 UNK        -0.1926 
     64 N         -81.9167   25.8302  -74.3710 N.am      2 UNK        -0.4687 
     65 C         -80.9574   25.6766  -73.4475 C.2       1 UNK         0.5165 
     66 O         -79.7792   25.9733  -73.6426 O.2       1 UNK        -0.5079 
     67 H67       -79.3490   21.6220  -71.4493 H         1 UNK         0.0900 
     68 H68       -80.5590   20.5986  -72.2258 H         1 UNK         0.0900 
     69 H69       -79.2178   21.2515  -73.1702 H         1 UNK         0.0900 
     70 H70       -80.0547   23.7280  -71.1159 H         1 UNK         0.2959 
     71 H71       -82.4342   24.7982  -72.1745 H         1 UNK         0.1079 
     72 H72       -81.7754   25.6231  -70.0659 H         1 UNK         0.0837 
     73 H73       -81.6049   26.9717  -71.1444 H         1 UNK         0.0837 
     74 H74       -80.5216   28.1892  -69.4601 H         1 UNK         0.0685 
     75 H75       -79.0502   27.8106  -68.6166 H         1 UNK         0.0685 
     76 H76       -80.2570   28.9325  -72.0070 H         1 UNK         0.1434 
     77 H77       -76.9438   31.5797  -72.5657 H         1 UNK         0.1329 
     78 H78       -77.0828   29.0106  -69.1288 H         1 UNK         0.1335 
     79 H79       -74.9142   30.0590  -69.8718 H         1 UNK         0.0680 
     80 H80       -75.7367   31.5248  -69.3981 H         1 UNK         0.0680 
     81 H81       -74.2506   30.8827  -73.5836 H         1 UNK         0.1032 
     82 H82       -74.5175   29.6175  -72.4276 H         1 UNK         0.1032 
     83 H83       -71.9495   31.2476  -72.2840 H         1 UNK         0.0461 
     84 H84       -71.2442   27.5079  -70.9358 H         1 UNK         0.3453 
     85 H85       -71.3689   27.8634  -72.6419 H         1 UNK         0.3453 
     86 H86       -72.5479   29.4468  -74.4873 H         1 UNK         0.2984 
     87 H87       -70.9978   29.9938  -76.3645 H         1 UNK         0.0554 
     88 H88       -68.7038   30.9205  -76.0930 H         1 UNK         0.0847 
     89 H89       -68.6905   29.5039  -77.1281 H         1 UNK         0.0847 
     90 H90       -68.1327   29.3836  -75.4592 H         1 UNK         0.0847 
     91 H91       -69.6792   27.4936  -75.6551 H         1 UNK         0.3141 
     92 H92       -70.7076   25.5710  -76.1798 H         1 UNK         0.0743 
     93 H93       -72.7181   25.7836  -73.8697 H         1 UNK         0.0784 
     94 H94       -71.8169   24.3303  -74.2929 H         1 UNK         0.0784 
     95 H95       -70.9641   25.7563  -73.7282 H         1 UNK         0.0784 
     96 H96       -73.7050   25.5342  -76.2027 H         1 UNK         0.3213 
     97 H97       -73.6438   23.9069  -79.4231 H         1 UNK         0.0855 
     98 H98       -74.5198   22.8998  -76.6682 H         1 UNK         0.0814 
     99 H99       -73.3741   22.0894  -77.7283 H         1 UNK         0.0814 
    100 H100      -75.0477   22.2696  -78.2277 H         1 UNK         0.0814 
    101 H101      -75.8456   24.6728  -77.8030 H         1 UNK         0.3105 
    102 H102      -76.4274   27.7828  -79.5300 H         1 UNK         0.0547 
    103 H103      -78.5430   26.5637  -79.9355 H         1 UNK         0.0837 
    104 H104      -77.7879   25.0371  -79.4886 H         1 UNK         0.0837 
    105 H105      -77.2568   25.8954  -80.9284 H         1 UNK         0.0837 
    106 H106      -77.7930   26.3659  -77.4071 H         1 UNK         0.3020 
    107 H107      -76.4139   28.3297  -74.7621 H         1 UNK         0.1245 
    108 H108      -79.0458   28.3169  -74.4523 H         1 UNK         0.0781 
    109 H109      -79.1299   28.4432  -76.1807 H         1 UNK         0.0781 
    110 H110      -80.2708   30.4469  -73.8628 H         1 UNK         0.0836 
    111 H111      -79.3607   31.9180  -73.6363 H         1 UNK         0.0836 
    112 H112      -78.2562   26.2492  -74.5973 H         1 UNK         0.3022 
    113 H113      -76.0744   23.4345  -74.7463 H         1 UNK         0.0747 
    114 H114      -77.2472   23.0124  -72.6027 H         1 UNK         0.0793 
    115 H115      -76.0472   24.2772  -72.4013 H         1 UNK         0.0793 
    116 H116      -77.7473   24.7013  -72.5087 H         1 UNK         0.0793 
    117 H117      -78.9360   23.8285  -74.5210 H         1 UNK         0.3047 
    118 H118      -79.6267   23.5172  -78.0084 H         1 UNK         0.0822 
    119 H119      -81.0457   21.6515  -77.1536 H         1 UNK         0.0807 
    120 H120      -80.0575   21.5477  -75.6978 H         1 UNK         0.0807 
    121 H121      -79.3593   21.1744  -77.2650 H         1 UNK         0.0807 
    122 H122      -81.2298   23.7929  -75.6076 H         1 UNK         0.2946 
    123 H123      -81.2804   27.3490  -75.6331 H         1 UNK         0.1144 
    124 H124      -83.5140   25.4655  -76.5662 H         1 UNK         0.0793 
    125 H125      -82.8976   26.8401  -77.4729 H         1 UNK         0.0793 
    126 H126      -83.7262   27.1048  -75.9486 H         1 UNK         0.0793 
    127 H127      -82.8574   25.5333  -74.1530 H         1 UNK         0.2896 
@<TRIPOS>BOND
     1    1    2 1    
     2    1   67 1    
     3    1   68 1    
     4    1   69 1    
     5    2    3 2    
     6    2    4 am   BACKBONE|DICT|INTERRES
     7    4    5 1    
     8    4   70 1    
     9    5    6 1    
    10    5   65 1    
    11    5   71 1    
    12    6    7 1    
    13    6   72 1    
    14    6   73 1    
    15    7    8 1    
    16    8    9 1    
    17    8   74 1    
    18    8   75 1    
    19    9   10 ar   
    20    9   14 ar   
    21   10   11 ar   
    22   10   76 1    
    23   11   12 ar   
    24   11   48 1    
    25   12   13 ar   
    26   12   77 1    
    27   13   14 ar   
    28   13   15 1    
    29   14   78 1    
    30   15   16 1    
    31   15   79 1    
    32   15   80 1    
    33   16   17 1    
    34   17   18 1    
    35   17   81 1    
    36   17   82 1    
    37   18   19 1    
    38   18   22 1    
    39   18   83 1    
    40   19   20 am   BACKBONE|DICT|INTERRES
    41   19   21 2    
    42   20   84 1    
    43   20   85 1    
    44   22   23 am   BACKBONE|DICT|INTERRES
    45   22   86 1    
    46   23   24 2    
    47   23   25 1    
    48   25   26 1    
    49   25   27 1    
    50   25   87 1    
    51   26   88 1    
    52   26   89 1    
    53   26   90 1    
    54   27   28 am   BACKBONE|DICT|INTERRES
    55   27   91 1    
    56   28   29 2    
    57   28   30 1    
    58   30   31 1    
    59   30   32 1    
    60   30   92 1    
    61   31   93 1    
    62   31   94 1    
    63   31   95 1    
    64   32   33 am   BACKBONE|DICT|INTERRES
    65   32   96 1    
    66   33   34 2    
    67   33   35 1    
    68   35   36 1    
    69   35   37 1    
    70   35   97 1    
    71   36   98 1    
    72   36   99 1    
    73   36  100 1    
    74   37   38 am   BACKBONE|DICT|INTERRES
    75   37  101 1    
    76   38   39 2    
    77   38   40 1    
    78   40   41 1    
    79   40   42 1    
    80   40  102 1    
    81   41  103 1    
    82   41  104 1    
    83   41  105 1    
    84   42   43 am   BACKBONE|DICT|INTERRES
    85   42  106 1    
    86   43   44 2    
    87   43   45 1    
    88   45   46 1    
    89   45   49 1    
    90   45  107 1    
    91   46   47 1    
    92   46  108 1    
    93   46  109 1    
    94   47   48 1    
    95   48  110 1    
    96   48  111 1    
    97   49   50 am   BACKBONE|DICT|INTERRES
    98   49  112 1    
    99   50   51 2    
   100   50   52 1    
   101   52   53 1    
   102   52   54 1    
   103   52  113 1    
   104   53  114 1    
   105   53  115 1    
   106   53  116 1    
   107   54   55 am   BACKBONE|DICT|INTERRES
   108   54  117 1    
   109   55   56 2    
   110   55   57 1    
   111   57   58 1    
   112   57   59 1    
   113   57  118 1    
   114   58  119 1    
   115   58  120 1    
   116   58  121 1    
   117   59   60 am   BACKBONE|DICT|INTERRES
   118   59  122 1    
   119   60   61 2    
   120   60   62 1    
   121   62   63 1    
   122   62   64 1    
   123   62  123 1    
   124   63  124 1    
   125   63  125 1    
   126   63  126 1    
   127   64   65 am   BACKBONE|DICT|INTERRES
   128   64  127 1    
   129   65   66 2    
@<TRIPOS>SUBSTRUCTURE
     1 UNK         1 GROUP             0       ****    0 ROOT    
