@<TRIPOS>MOLECULE
3R135
127   129    1
SMALL
USER_CHARGES


@<TRIPOS>ATOM
      1 CA        -85.6303   28.9269  -74.2292 C.3       0 UNK        -0.1998 
      2 C         -84.3519   28.9134  -75.0534 C.2       0 UNK         0.4909 
      3 O         -84.4069   28.7015  -76.2650 O.2       0 UNK        -0.5240 
      4 N         -83.2029   29.1436  -74.4050 N.am      1 UNK        -0.4739 
      5 CA        -81.8646   29.1325  -75.0098 C.3       1 UNK         0.0864 
      6 C6        -80.7831   29.7628  -74.0841 C.3       11 UNK        -0.0881 
      7 S7        -80.9675   29.3842  -72.3009 S.3       11 UNK        -0.2682 
      8 C8        -79.9552   27.8819  -72.1018 C.3       11 UNK         0.0289 
      9 C9        -78.5222   28.1129  -71.6373 C.ar      11 UNK        -0.0687 
     10 C10       -77.9242   27.1321  -70.8443 C.ar      11 UNK        -0.0823 
     11 C11       -76.5858   27.2352  -70.4638 C.ar      11 UNK        -0.0830 
     12 C12       -75.8488   28.3558  -70.8530 C.ar      11 UNK        -0.1021 
     13 C13       -76.4238   29.3454  -71.6567 C.ar      11 UNK        -0.0753 
     14 C14       -77.7664   29.2233  -72.0350 C.ar      11 UNK        -0.0933 
     15 C15       -75.5835   30.5324  -72.1177 C.3       11 UNK         0.0166 
     16 S16       -75.6437   30.7599  -73.9260 S.3       11 UNK        -0.2615 
     17 C17       -74.1284   31.7282  -74.2464 C.3       11 UNK        -0.0865 
     18 CA        -73.1237   30.9685  -75.1644 C.3       10 UNK         0.0862 
     19 C         -71.9410   31.8647  -75.6454 C.2       10 UNK         0.5551 
     20 N         -70.7514   31.3204  -75.8746 N.am      10 UNK        -0.7319 
     21 O         -72.1075   33.0656  -75.8462 O.2       10 UNK        -0.5018 
     22 N         -72.7223   29.6537  -74.6280 N.am      10 UNK        -0.4509 
     23 C         -72.0158   29.4465  -73.5082 C.2       10 UNK         0.4899 
     24 O         -71.6174   30.3509  -72.7737 O.2       10 UNK        -0.4839 
     25 CA        -71.6888   27.9948  -73.1207 C.3       9 UNK         0.0222 
     26 CB        -72.6030   27.5236  -71.9844 C.3       9 UNK        -0.1966 
     27 N         -71.7769   27.0315  -74.2188 N.am      9 UNK        -0.4218 
     28 C         -70.8431   26.8747  -75.1664 C.2       9 UNK         0.5020 
     29 O         -69.8703   27.6182  -75.3000 O.2       9 UNK        -0.5274 
     30 CA        -71.0138   25.6758  -76.1091 C.3       8 UNK         0.0270 
     31 CB        -70.7377   24.3558  -75.3681 C.3       8 UNK        -0.1976 
     32 N         -72.3628   25.6442  -76.6693 N.am      8 UNK        -0.4313 
     33 C         -72.6843   26.0534  -77.9036 C.2       8 UNK         0.5041 
     34 O         -71.8620   26.4348  -78.7379 O.2       8 UNK        -0.5577 
     35 CA        -74.1778   26.0447  -78.2802 C.3       7 UNK         0.0284 
     36 CB        -74.5134   24.7974  -79.1124 C.3       7 UNK        -0.1958 
     37 N         -75.0730   26.1337  -77.1189 N.am      7 UNK        -0.4454 
     38 C         -75.1695   27.2321  -76.3533 C.2       7 UNK         0.5089 
     39 O         -74.5335   28.2615  -76.5744 O.2       7 UNK        -0.5125 
     40 CA        -76.0828   27.1875  -75.1174 C.3       6 UNK         0.0408 
     41 CB        -77.4505   27.8029  -75.4441 C.3       6 UNK        -0.1791 
     42 N         -76.2644   25.8675  -74.5060 N.am      6 UNK        -0.4762 
     43 C         -75.2716   25.1278  -73.9835 C.2       6 UNK         0.5007 
     44 O         -74.0762   25.3861  -74.1465 O.2       6 UNK        -0.5032 
     45 CA        -75.6677   23.8780  -73.1737 C.3       5 UNK         0.0783 
     46 C46       -76.1938   24.2134  -71.7568 C.3       11 UNK        -0.0857 
     47 S47       -74.9423   24.9961  -70.6770 S.3       11 UNK        -0.2512 
     48 C48       -75.9388   26.1255  -69.6467 C.3       11 UNK         0.0225 
     49 N         -76.6533   23.1114  -73.9330 N.am      5 UNK        -0.4615 
     50 C         -76.4361   21.8971  -74.4518 C.2       4 UNK         0.5053 
     51 O         -75.4407   21.2130  -74.2120 O.2       4 UNK        -0.5105 
     52 CA        -77.4963   21.3562  -75.4313 C.3       4 UNK         0.0263 
     53 CB        -78.4836   20.4361  -74.6952 C.3       4 UNK        -0.1981 
     54 N         -78.2491   22.3935  -76.1472 N.am      4 UNK        -0.4224 
     55 C         -77.7181   23.3739  -76.8936 C.2       3 UNK         0.4895 
     56 O         -76.5115   23.5206  -77.0794 O.2       3 UNK        -0.5091 
     57 CA        -78.6838   24.4019  -77.5009 C.3       3 UNK         0.0250 
     58 CB        -79.0146   24.0262  -78.9538 C.3       3 UNK        -0.1996 
     59 N         -79.9314   24.6039  -76.7556 N.am      3 UNK        -0.4254 
     60 C         -80.0403   24.9853  -75.4740 C.2       2 UNK         0.5004 
     61 O         -79.0849   25.1072  -74.6998 O.2       2 UNK        -0.5226 
     62 CA        -81.4736   25.2704  -74.9818 C.3       2 UNK         0.0269 
     63 CB        -81.7658   24.4771  -73.6967 C.3       2 UNK        -0.1926 
     64 N         -81.7513   26.6914  -74.7339 N.am      2 UNK        -0.4687 
     65 C         -81.4523   27.7361  -75.5242 C.2       1 UNK         0.5165 
     66 O         -80.9050   27.6424  -76.6232 O.2       1 UNK        -0.5079 
     67 H67       -86.3101   29.6918  -74.6035 H         1 UNK         0.0900 
     68 H68       -85.4349   29.1327  -73.1769 H         1 UNK         0.0900 
     69 H69       -86.1314   27.9617  -74.2984 H         1 UNK         0.0900 
     70 H70       -83.2156   29.3212  -73.4095 H         1 UNK         0.2959 
     71 H71       -81.9227   29.7620  -75.9012 H         1 UNK         0.1079 
     72 H72       -79.7742   29.5175  -74.4194 H         1 UNK         0.0837 
     73 H73       -80.8482   30.8484  -74.1710 H         1 UNK         0.0837 
     74 H74       -80.4740   27.2393  -71.3890 H         1 UNK         0.0685 
     75 H75       -79.9092   27.3233  -73.0332 H         1 UNK         0.0685 
     76 H76       -78.4964   26.2640  -70.5464 H         1 UNK         0.1434 
     77 H77       -74.8190   28.4450  -70.5409 H         1 UNK         0.1329 
     78 H78       -78.2077   29.9837  -72.6626 H         1 UNK         0.1335 
     79 H79       -74.5447   30.3957  -71.8131 H         1 UNK         0.0680 
     80 H80       -75.9378   31.4402  -71.6281 H         1 UNK         0.0680 
     81 H81       -74.4423   32.6609  -74.7183 H         1 UNK         0.1032 
     82 H82       -73.6532   32.0178  -73.3082 H         1 UNK         0.1032 
     83 H83       -73.6602   30.7401  -76.0854 H         1 UNK         0.0461 
     84 H84       -69.9937   31.9019  -76.1957 H         1 UNK         0.3453 
     85 H85       -70.6036   30.3351  -75.7176 H         1 UNK         0.3453 
     86 H86       -73.0345   28.8610  -75.1752 H         1 UNK         0.2984 
     87 H87       -70.6632   27.9876  -72.7453 H         1 UNK         0.0554 
     88 H88       -72.3126   26.5370  -71.6230 H         1 UNK         0.0847 
     89 H89       -73.6402   27.4645  -72.3146 H         1 UNK         0.0847 
     90 H90       -72.5571   28.2055  -71.1346 H         1 UNK         0.0847 
     91 H91       -72.5636   26.3849  -74.1848 H         1 UNK         0.3141 
     92 H92       -70.2730   25.7704  -76.9061 H         1 UNK         0.0743 
     93 H93       -71.4532   24.1793  -74.5637 H         1 UNK         0.0784 
     94 H94       -70.7863   23.5055  -76.0486 H         1 UNK         0.0784 
     95 H95       -69.7410   24.3586  -74.9246 H         1 UNK         0.0784 
     96 H96       -73.1127   25.3820  -76.0393 H         1 UNK         0.3213 
     97 H97       -74.3578   26.9220  -78.9056 H         1 UNK         0.0855 
     98 H98       -74.3229   23.8787  -78.5565 H         1 UNK         0.0814 
     99 H99       -73.9070   24.7594  -80.0183 H         1 UNK         0.0814 
    100 H100      -75.5584   24.7943  -79.4225 H         1 UNK         0.0814 
    101 H101      -75.6044   25.3009  -76.8815 H         1 UNK         0.3105 
    102 H102      -75.6131   27.8118  -74.3549 H         1 UNK         0.0547 
    103 H103      -77.3426   28.8340  -75.7829 H         1 UNK         0.0837 
    104 H104      -77.9701   27.2559  -76.2291 H         1 UNK         0.0837 
    105 H105      -78.0936   27.8162  -74.5668 H         1 UNK         0.0837 
    106 H106      -77.2296   25.5759  -74.3795 H         1 UNK         0.3020 
    107 H107      -74.7538   23.2915  -73.0524 H         1 UNK         0.1245 
    108 H108      -76.5163   23.2961  -71.2618 H         1 UNK         0.0781 
    109 H109      -77.0843   24.8342  -71.8320 H         1 UNK         0.0781 
    110 H110      -75.2947   26.5655  -68.8840 H         1 UNK         0.0836 
    111 H111      -76.6940   25.5499  -69.1092 H         1 UNK         0.0836 
    112 H112      -77.4997   23.5995  -74.1987 H         1 UNK         0.3022 
    113 H113      -76.9681   20.7649  -76.1820 H         1 UNK         0.0747 
    114 H114      -79.1779   19.9611  -75.3885 H         1 UNK         0.0793 
    115 H115      -77.9567   19.6375  -74.1708 H         1 UNK         0.0793 
    116 H116      -79.0679   20.9826  -73.9536 H         1 UNK         0.0793 
    117 H117      -79.2537   22.3687  -76.0521 H         1 UNK         0.3047 
    118 H118      -78.1591   25.3580  -77.5159 H         1 UNK         0.0822 
    119 H119      -79.5978   24.8066  -79.4431 H         1 UNK         0.0807 
    120 H120      -79.5804   23.0954  -79.0120 H         1 UNK         0.0807 
    121 H121      -78.1044   23.8913  -79.5403 H         1 UNK         0.0807 
    122 H122      -80.7780   24.5437  -77.3030 H         1 UNK         0.2946 
    123 H123      -82.1772   24.9379  -75.7475 H         1 UNK         0.1144 
    124 H124      -81.5799   23.4121  -73.8426 H         1 UNK         0.0793 
    125 H125      -82.8067   24.5830  -73.3905 H         1 UNK         0.0793 
    126 H126      -81.1367   24.8057  -72.8681 H         1 UNK         0.0793 
    127 H127      -82.2193   26.9016  -73.8646 H         1 UNK         0.2896 
@<TRIPOS>BOND
     1    1    2 1    
     2    1   67 1    
     3    1   68 1    
     4    1   69 1    
     5    2    3 2    
     6    2    4 am   BACKBONE|DICT|INTERRES
     7    4    5 1    
     8    4   70 1    
     9    5    6 1    
    10    5   65 1    
    11    5   71 1    
    12    6    7 1    
    13    6   72 1    
    14    6   73 1    
    15    7    8 1    
    16    8    9 1    
    17    8   74 1    
    18    8   75 1    
    19    9   10 ar   
    20    9   14 ar   
    21   10   11 ar   
    22   10   76 1    
    23   11   12 ar   
    24   11   48 1    
    25   12   13 ar   
    26   12   77 1    
    27   13   14 ar   
    28   13   15 1    
    29   14   78 1    
    30   15   16 1    
    31   15   79 1    
    32   15   80 1    
    33   16   17 1    
    34   17   18 1    
    35   17   81 1    
    36   17   82 1    
    37   18   19 1    
    38   18   22 1    
    39   18   83 1    
    40   19   20 am   BACKBONE|DICT|INTERRES
    41   19   21 2    
    42   20   84 1    
    43   20   85 1    
    44   22   23 am   BACKBONE|DICT|INTERRES
    45   22   86 1    
    46   23   24 2    
    47   23   25 1    
    48   25   26 1    
    49   25   27 1    
    50   25   87 1    
    51   26   88 1    
    52   26   89 1    
    53   26   90 1    
    54   27   28 am   BACKBONE|DICT|INTERRES
    55   27   91 1    
    56   28   29 2    
    57   28   30 1    
    58   30   31 1    
    59   30   32 1    
    60   30   92 1    
    61   31   93 1    
    62   31   94 1    
    63   31   95 1    
    64   32   33 am   BACKBONE|DICT|INTERRES
    65   32   96 1    
    66   33   34 2    
    67   33   35 1    
    68   35   36 1    
    69   35   37 1    
    70   35   97 1    
    71   36   98 1    
    72   36   99 1    
    73   36  100 1    
    74   37   38 am   BACKBONE|DICT|INTERRES
    75   37  101 1    
    76   38   39 2    
    77   38   40 1    
    78   40   41 1    
    79   40   42 1    
    80   40  102 1    
    81   41  103 1    
    82   41  104 1    
    83   41  105 1    
    84   42   43 am   BACKBONE|DICT|INTERRES
    85   42  106 1    
    86   43   44 2    
    87   43   45 1    
    88   45   46 1    
    89   45   49 1    
    90   45  107 1    
    91   46   47 1    
    92   46  108 1    
    93   46  109 1    
    94   47   48 1    
    95   48  110 1    
    96   48  111 1    
    97   49   50 am   BACKBONE|DICT|INTERRES
    98   49  112 1    
    99   50   51 2    
   100   50   52 1    
   101   52   53 1    
   102   52   54 1    
   103   52  113 1    
   104   53  114 1    
   105   53  115 1    
   106   53  116 1    
   107   54   55 am   BACKBONE|DICT|INTERRES
   108   54  117 1    
   109   55   56 2    
   110   55   57 1    
   111   57   58 1    
   112   57   59 1    
   113   57  118 1    
   114   58  119 1    
   115   58  120 1    
   116   58  121 1    
   117   59   60 am   BACKBONE|DICT|INTERRES
   118   59  122 1    
   119   60   61 2    
   120   60   62 1    
   121   62   63 1    
   122   62   64 1    
   123   62  123 1    
   124   63  124 1    
   125   63  125 1    
   126   63  126 1    
   127   64   65 am   BACKBONE|DICT|INTERRES
   128   64  127 1    
   129   65   66 2    
@<TRIPOS>SUBSTRUCTURE
     1 UNK         1 GROUP             0       ****    0 ROOT    
