@<TRIPOS>MOLECULE
3R135
127   129    1
SMALL
USER_CHARGES


@<TRIPOS>ATOM
      1 CA        -82.9490   25.9187  -69.7641 C.3       0 UNK        -0.1998 
      2 C         -82.3838   26.2983  -71.1241 C.2       0 UNK         0.4909 
      3 O         -81.4200   25.6807  -71.5741 O.2       0 UNK        -0.5240 
      4 N         -82.9805   27.3093  -71.7737 N.am      1 UNK        -0.4739 
      5 CA        -82.5973   27.8566  -73.0869 C.3       1 UNK         0.0864 
      6 C6        -81.2127   28.5635  -73.0825 C.3       11 UNK        -0.0881 
      7 S7        -81.1659   30.0190  -71.9751 S.3       11 UNK        -0.2682 
      8 C8        -80.2327   29.4214  -70.5267 C.3       11 UNK         0.0289 
      9 C9        -78.7867   29.0913  -70.8667 C.ar      11 UNK        -0.0687 
     10 C10       -78.3991   27.7606  -71.0422 C.ar      11 UNK        -0.0823 
     11 C11       -77.0892   27.4453  -71.4095 C.ar      11 UNK        -0.0830 
     12 C12       -76.1476   28.4670  -71.5481 C.ar      11 UNK        -0.1021 
     13 C13       -76.5201   29.8019  -71.3697 C.ar      11 UNK        -0.0753 
     14 C14       -77.8410   30.1103  -71.0258 C.ar      11 UNK        -0.0933 
     15 C15       -75.4958   30.9018  -71.5934 C.3       11 UNK         0.0166 
     16 S16       -75.1244   31.0667  -73.3661 S.3       11 UNK        -0.2615 
     17 C17       -73.8373   32.3620  -73.3537 C.3       11 UNK        -0.0865 
     18 CA        -72.3851   31.8264  -73.5025 C.3       10 UNK         0.0862 
     19 C         -71.7891   31.2793  -72.1705 C.2       10 UNK         0.5551 
     20 N         -71.0748   30.1597  -72.1636 N.am      10 UNK        -0.7319 
     21 O         -71.9609   31.8932  -71.1204 O.2       10 UNK        -0.5018 
     22 N         -72.2644   30.9008  -74.6399 N.am      10 UNK        -0.4509 
     23 C         -71.2263   30.8289  -75.4781 C.2       10 UNK         0.4899 
     24 O         -70.2642   31.5985  -75.4513 O.2       10 UNK        -0.4839 
     25 CA        -71.2782   29.6764  -76.4996 C.3       9 UNK         0.0222 
     26 CB        -70.0180   29.6044  -77.3871 C.3       9 UNK        -0.1966 
     27 N         -71.5349   28.3701  -75.8776 N.am      9 UNK        -0.4218 
     28 C         -70.8226   27.7714  -74.9083 C.2       9 UNK         0.5020 
     29 O         -69.8871   28.3015  -74.3085 O.2       9 UNK        -0.5274 
     30 CA        -71.2147   26.3297  -74.5457 C.3       8 UNK         0.0270 
     31 CB        -72.2616   26.3151  -73.4172 C.3       8 UNK        -0.1976 
     32 N         -71.7159   25.5937  -75.7106 N.am      8 UNK        -0.4313 
     33 C         -70.9361   25.0206  -76.6405 C.2       8 UNK         0.5041 
     34 O         -69.7077   24.9739  -76.5656 O.2       8 UNK        -0.5577 
     35 CA        -71.6328   24.3909  -77.8629 C.3       7 UNK         0.0284 
     36 CB        -71.8711   22.8903  -77.6302 C.3       7 UNK        -0.1958 
     37 N         -72.9054   25.0368  -78.1938 N.am      7 UNK        -0.4454 
     38 C         -73.0159   26.2536  -78.7521 C.2       7 UNK         0.5089 
     39 O         -72.0555   26.9129  -79.1478 O.2       7 UNK        -0.5125 
     40 CA        -74.4310   26.8640  -78.8400 C.3       6 UNK         0.0408 
     41 CB        -75.0468   26.5972  -80.2220 C.3       6 UNK        -0.1791 
     42 N         -75.3386   26.3685  -77.7995 N.am      6 UNK        -0.4762 
     43 C         -75.1282   26.4887  -76.4802 C.2       6 UNK         0.5007 
     44 O         -74.2224   27.1783  -76.0117 O.2       6 UNK        -0.5032 
     45 CA        -75.9826   25.6247  -75.5293 C.3       5 UNK         0.0783 
     46 C46       -76.7776   26.4818  -74.5216 C.3       11 UNK        -0.0857 
     47 S47       -77.5417   25.4326  -73.2349 S.3       11 UNK        -0.2512 
     48 C48       -76.7137   26.0056  -71.7173 C.3       11 UNK         0.0225 
     49 N         -76.8477   24.6679  -76.2278 N.am      5 UNK        -0.4615 
     50 C         -76.4490   23.5600  -76.8593 C.2       4 UNK         0.5053 
     51 O         -75.2604   23.2706  -77.0101 O.2       4 UNK        -0.5105 
     52 CA        -77.5590   22.6473  -77.4285 C.3       4 UNK         0.0263 
     53 CB        -77.0167   21.2725  -77.8621 C.3       4 UNK        -0.1981 
     54 N         -78.6902   22.4442  -76.5096 N.am      4 UNK        -0.4224 
     55 C         -79.6446   23.3415  -76.2243 C.2       3 UNK         0.4895 
     56 O         -79.6614   24.4854  -76.6877 O.2       3 UNK        -0.5091 
     57 CA        -80.7427   22.8974  -75.2485 C.3       3 UNK         0.0250 
     58 CB        -80.2061   22.7465  -73.8124 C.3       3 UNK        -0.1996 
     59 N         -81.8209   23.8824  -75.2687 N.am      3 UNK        -0.4254 
     60 C         -83.0954   23.6643  -74.9348 C.2       2 UNK         0.5004 
     61 O         -83.5177   22.5800  -74.5270 O.2       2 UNK        -0.5226 
     62 CA        -84.0510   24.8662  -75.0700 C.3       2 UNK         0.0269 
     63 CB        -85.5293   24.4688  -74.8951 C.3       2 UNK        -0.1926 
     64 N         -83.7321   25.9219  -74.1053 N.am      2 UNK        -0.4687 
     65 C         -82.7471   26.8234  -74.2317 C.2       1 UNK         0.5165 
     66 O         -81.9990   26.8630  -75.2106 O.2       1 UNK        -0.5079 
     67 H67       -83.2827   24.8814  -69.7735 H         1 UNK         0.0900 
     68 H68       -83.7952   26.5455  -69.4831 H         1 UNK         0.0900 
     69 H69       -82.1811   26.0228  -68.9981 H         1 UNK         0.0900 
     70 H70       -83.7672   27.7704  -71.3371 H         1 UNK         0.2959 
     71 H71       -83.3419   28.6207  -73.3164 H         1 UNK         0.1079 
     72 H72       -80.4204   27.8578  -72.8361 H         1 UNK         0.0837 
     73 H73       -80.9712   28.9347  -74.0801 H         1 UNK         0.0837 
     74 H74       -80.7382   28.5541  -70.1009 H         1 UNK         0.0685 
     75 H75       -80.2535   30.1920  -69.7549 H         1 UNK         0.0685 
     76 H76       -79.1290   26.9681  -70.9432 H         1 UNK         0.1434 
     77 H77       -75.1329   28.2319  -71.8405 H         1 UNK         0.1329 
     78 H78       -78.1412   31.1421  -70.9036 H         1 UNK         0.1335 
     79 H79       -74.5829   30.6653  -71.0451 H         1 UNK         0.0680 
     80 H80       -75.8585   31.8553  -71.2064 H         1 UNK         0.0680 
     81 H81       -74.0501   33.0262  -74.1926 H         1 UNK         0.1032 
     82 H82       -73.9427   32.9892  -72.4664 H         1 UNK         0.1032 
     83 H83       -71.7712   32.7021  -73.7212 H         1 UNK         0.0461 
     84 H84       -70.6923   29.8314  -71.2915 H         1 UNK         0.3453 
     85 H85       -70.8518   29.6741  -73.0230 H         1 UNK         0.3453 
     86 H86       -73.0056   30.2188  -74.7196 H         1 UNK         0.2984 
     87 H87       -72.1292   29.8785  -77.1517 H         1 UNK         0.0554 
     88 H88       -70.1023   28.8097  -78.1287 H         1 UNK         0.0847 
     89 H89       -69.1185   29.4192  -76.7988 H         1 UNK         0.0847 
     90 H90       -69.8667   30.5384  -77.9297 H         1 UNK         0.0847 
     91 H91       -72.3599   27.8815  -76.2111 H         1 UNK         0.3141 
     92 H92       -70.3192   25.8262  -74.1747 H         1 UNK         0.0743 
     93 H93       -71.8619   26.7829  -72.5164 H         1 UNK         0.0784 
     94 H94       -73.1673   26.8596  -73.6832 H         1 UNK         0.0784 
     95 H95       -72.5466   25.2968  -73.1522 H         1 UNK         0.0784 
     96 H96       -72.7116   25.6370  -75.8753 H         1 UNK         0.3213 
     97 H97       -70.9611   24.5005  -78.7174 H         1 UNK         0.0855 
     98 H98       -72.5343   22.7124  -76.7826 H         1 UNK         0.0814 
     99 H99       -70.9325   22.3740  -77.4236 H         1 UNK         0.0814 
    100 H100      -72.3145   22.4175  -78.5067 H         1 UNK         0.0814 
    101 H101      -73.7486   24.5470  -77.9143 H         1 UNK         0.3105 
    102 H102      -74.3328   27.9436  -78.7089 H         1 UNK         0.0547 
    103 H103      -75.1885   25.5310  -80.4034 H         1 UNK         0.0837 
    104 H104      -76.0139   27.0888  -80.3282 H         1 UNK         0.0837 
    105 H105      -74.4029   26.9795  -81.0154 H         1 UNK         0.0837 
    106 H106      -76.1059   25.7856  -78.1014 H         1 UNK         0.3020 
    107 H107      -75.2608   25.0390  -74.9550 H         1 UNK         0.1245 
    108 H108      -77.5655   27.0442  -75.0259 H         1 UNK         0.0781 
    109 H109      -76.1286   27.2223  -74.0522 H         1 UNK         0.0781 
    110 H110      -77.0122   25.3671  -70.8846 H         1 UNK         0.0836 
    111 H111      -75.6339   25.8911  -71.8255 H         1 UNK         0.0836 
    112 H112      -77.8473   24.8457  -76.1840 H         1 UNK         0.3022 
    113 H113      -77.9387   23.1461  -78.3227 H         1 UNK         0.0747 
    114 H114      -76.2273   21.3783  -78.6078 H         1 UNK         0.0793 
    115 H115      -77.7986   20.6593  -78.3105 H         1 UNK         0.0793 
    116 H116      -76.5972   20.7214  -77.0195 H         1 UNK         0.0793 
    117 H117      -78.7318   21.5427  -76.0556 H         1 UNK         0.3047 
    118 H118      -81.1278   21.9370  -75.5981 H         1 UNK         0.0822 
    119 H119      -79.3369   22.0895  -73.7708 H         1 UNK         0.0807 
    120 H120      -80.9622   22.3215  -73.1522 H         1 UNK         0.0807 
    121 H121      -79.9126   23.7094  -73.3941 H         1 UNK         0.0807 
    122 H122      -81.5457   24.8060  -75.5929 H         1 UNK         0.2946 
    123 H123      -83.9323   25.2610  -76.0820 H         1 UNK         0.1144 
    124 H124      -85.7295   24.0798  -73.8959 H         1 UNK         0.0793 
    125 H125      -85.8125   23.6946  -75.6096 H         1 UNK         0.0793 
    126 H126      -86.1910   25.3188  -75.0629 H         1 UNK         0.0793 
    127 H127      -84.2746   25.9336  -73.2536 H         1 UNK         0.2896 
@<TRIPOS>BOND
     1    1    2 1    
     2    1   67 1    
     3    1   68 1    
     4    1   69 1    
     5    2    3 2    
     6    2    4 am   BACKBONE|DICT|INTERRES
     7    4    5 1    
     8    4   70 1    
     9    5    6 1    
    10    5   65 1    
    11    5   71 1    
    12    6    7 1    
    13    6   72 1    
    14    6   73 1    
    15    7    8 1    
    16    8    9 1    
    17    8   74 1    
    18    8   75 1    
    19    9   10 ar   
    20    9   14 ar   
    21   10   11 ar   
    22   10   76 1    
    23   11   12 ar   
    24   11   48 1    
    25   12   13 ar   
    26   12   77 1    
    27   13   14 ar   
    28   13   15 1    
    29   14   78 1    
    30   15   16 1    
    31   15   79 1    
    32   15   80 1    
    33   16   17 1    
    34   17   18 1    
    35   17   81 1    
    36   17   82 1    
    37   18   19 1    
    38   18   22 1    
    39   18   83 1    
    40   19   20 am   BACKBONE|DICT|INTERRES
    41   19   21 2    
    42   20   84 1    
    43   20   85 1    
    44   22   23 am   BACKBONE|DICT|INTERRES
    45   22   86 1    
    46   23   24 2    
    47   23   25 1    
    48   25   26 1    
    49   25   27 1    
    50   25   87 1    
    51   26   88 1    
    52   26   89 1    
    53   26   90 1    
    54   27   28 am   BACKBONE|DICT|INTERRES
    55   27   91 1    
    56   28   29 2    
    57   28   30 1    
    58   30   31 1    
    59   30   32 1    
    60   30   92 1    
    61   31   93 1    
    62   31   94 1    
    63   31   95 1    
    64   32   33 am   BACKBONE|DICT|INTERRES
    65   32   96 1    
    66   33   34 2    
    67   33   35 1    
    68   35   36 1    
    69   35   37 1    
    70   35   97 1    
    71   36   98 1    
    72   36   99 1    
    73   36  100 1    
    74   37   38 am   BACKBONE|DICT|INTERRES
    75   37  101 1    
    76   38   39 2    
    77   38   40 1    
    78   40   41 1    
    79   40   42 1    
    80   40  102 1    
    81   41  103 1    
    82   41  104 1    
    83   41  105 1    
    84   42   43 am   BACKBONE|DICT|INTERRES
    85   42  106 1    
    86   43   44 2    
    87   43   45 1    
    88   45   46 1    
    89   45   49 1    
    90   45  107 1    
    91   46   47 1    
    92   46  108 1    
    93   46  109 1    
    94   47   48 1    
    95   48  110 1    
    96   48  111 1    
    97   49   50 am   BACKBONE|DICT|INTERRES
    98   49  112 1    
    99   50   51 2    
   100   50   52 1    
   101   52   53 1    
   102   52   54 1    
   103   52  113 1    
   104   53  114 1    
   105   53  115 1    
   106   53  116 1    
   107   54   55 am   BACKBONE|DICT|INTERRES
   108   54  117 1    
   109   55   56 2    
   110   55   57 1    
   111   57   58 1    
   112   57   59 1    
   113   57  118 1    
   114   58  119 1    
   115   58  120 1    
   116   58  121 1    
   117   59   60 am   BACKBONE|DICT|INTERRES
   118   59  122 1    
   119   60   61 2    
   120   60   62 1    
   121   62   63 1    
   122   62   64 1    
   123   62  123 1    
   124   63  124 1    
   125   63  125 1    
   126   63  126 1    
   127   64   65 am   BACKBONE|DICT|INTERRES
   128   64  127 1    
   129   65   66 2    
@<TRIPOS>SUBSTRUCTURE
     1 UNK         1 GROUP             0       ****    0 ROOT    
