@<TRIPOS>MOLECULE
3R135
127   129    1
SMALL
USER_CHARGES


@<TRIPOS>ATOM
      1 CA        -82.3570   25.4452  -72.7463 C.3       0 UNK        -0.1998 
      2 C         -81.9275   26.3474  -73.8937 C.2       0 UNK         0.4909 
      3 O         -82.5640   26.3438  -74.9487 O.2       0 UNK        -0.5240 
      4 N         -80.8534   27.1219  -73.6926 N.am      1 UNK        -0.4739 
      5 CA        -80.2667   28.0397  -74.6736 C.3       1 UNK         0.0864 
      6 C6        -79.1812   28.9457  -74.0447 C.3       11 UNK        -0.0881 
      7 S7        -79.8595   30.1149  -72.8195 S.3       11 UNK        -0.2682 
      8 C8        -79.5690   29.2601  -71.2372 C.3       11 UNK         0.0289 
      9 C9        -78.0900   29.1321  -70.9016 C.ar      11 UNK        -0.0687 
     10 C10       -77.4450   27.8966  -71.0041 C.ar      11 UNK        -0.0823 
     11 C11       -76.0963   27.7658  -70.6595 C.ar      11 UNK        -0.0830 
     12 C12       -75.3904   28.8878  -70.2063 C.ar      11 UNK        -0.1021 
     13 C13       -76.0328   30.1248  -70.0774 C.ar      11 UNK        -0.0753 
     14 C14       -77.3787   30.2407  -70.4368 C.ar      11 UNK        -0.0933 
     15 C15       -75.3142   31.3243  -69.4752 C.3       11 UNK         0.0166 
     16 S16       -74.8782   32.5762  -70.7243 S.3       11 UNK        -0.2615 
     17 C17       -73.1197   32.2105  -71.0537 C.3       11 UNK        -0.0865 
     18 CA        -72.8372   31.8950  -72.5438 C.3       10 UNK         0.0862 
     19 C         -71.3020   31.8165  -72.7989 C.2       10 UNK         0.5551 
     20 N         -70.7291   30.6608  -73.1126 N.am      10 UNK        -0.7319 
     21 O         -70.6172   32.8327  -72.7086 O.2       10 UNK        -0.5018 
     22 N         -73.6002   30.7232  -72.9960 N.am      10 UNK        -0.4509 
     23 C         -73.7806   30.3710  -74.2724 C.2       10 UNK         0.4899 
     24 O         -73.4061   31.0357  -75.2405 O.2       10 UNK        -0.4839 
     25 CA        -74.4822   29.0230  -74.4966 C.3       9 UNK         0.0222 
     26 CB        -75.7383   29.1957  -75.3628 C.3       9 UNK        -0.1966 
     27 N         -73.5891   28.0242  -75.0964 N.am      9 UNK        -0.4218 
     28 C         -72.4188   27.6188  -74.5703 C.2       9 UNK         0.5020 
     29 O         -71.9533   28.0688  -73.5212 O.2       9 UNK        -0.5274 
     30 CA        -71.6218   26.5189  -75.2967 C.3       8 UNK         0.0270 
     31 CB        -71.4651   25.2779  -74.4004 C.3       8 UNK        -0.1976 
     32 N         -72.2140   26.1174  -76.5736 N.am      8 UNK        -0.4313 
     33 C         -71.9686   26.7268  -77.7426 C.2       8 UNK         0.5041 
     34 O         -71.1867   27.6703  -77.8665 O.2       8 UNK        -0.5577 
     35 CA        -72.7148   26.2143  -78.9904 C.3       7 UNK         0.0284 
     36 CB        -71.7911   25.3275  -79.8415 C.3       7 UNK        -0.1958 
     37 N         -73.9478   25.4782  -78.6973 N.am      7 UNK        -0.4454 
     38 C         -75.0283   25.9961  -78.0988 C.2       7 UNK         0.5089 
     39 O         -75.1022   27.1686  -77.7328 O.2       7 UNK        -0.5125 
     40 CA        -76.2088   25.0480  -77.8188 C.3       6 UNK         0.0408 
     41 CB        -76.1075   23.6771  -78.5252 C.3       6 UNK        -0.1791 
     42 N         -76.4271   24.8579  -76.3820 N.am      6 UNK        -0.4762 
     43 C         -75.5323   24.4196  -75.4822 C.2       6 UNK         0.5007 
     44 O         -74.3552   24.1713  -75.7505 O.2       6 UNK        -0.5032 
     45 CA        -76.0648   24.1524  -74.0617 C.3       5 UNK         0.0783 
     46 C46       -76.3111   25.4535  -73.2550 C.3       11 UNK        -0.0857 
     47 S47       -74.8061   25.9913  -72.3751 S.3       11 UNK        -0.2512 
     48 C48       -75.4240   26.3989  -70.7127 C.3       11 UNK         0.0225 
     49 N         -77.2534   23.2965  -74.1150 N.am      5 UNK        -0.4615 
     50 C         -77.2292   21.9759  -74.3325 C.2       4 UNK         0.5053 
     51 O         -76.1927   21.3298  -74.4870 O.2       4 UNK        -0.5105 
     52 CA        -78.5785   21.2340  -74.3686 C.3       4 UNK         0.0263 
     53 CB        -79.2107   21.1540  -72.9639 C.3       4 UNK        -0.1981 
     54 N         -79.5350   21.7387  -75.3646 N.am      4 UNK        -0.4224 
     55 C         -80.1389   22.9333  -75.4031 C.2       3 UNK         0.4895 
     56 O         -79.9571   23.8257  -74.5721 O.2       3 UNK        -0.5091 
     57 CA        -81.1448   23.1506  -76.5419 C.3       3 UNK         0.0250 
     58 CB        -82.5751   22.8596  -76.0605 C.3       3 UNK        -0.1996 
     59 N         -81.0666   24.5335  -77.0040 N.am      3 UNK        -0.4254 
     60 C         -80.2494   24.9576  -77.9774 C.2       2 UNK         0.5004 
     61 O         -79.5870   24.2046  -78.6913 O.2       2 UNK        -0.5226 
     62 CA        -80.1379   26.4787  -78.1917 C.3       2 UNK         0.0269 
     63 CB        -81.0649   26.9307  -79.3314 C.3       2 UNK        -0.1926 
     64 N         -80.4374   27.2586  -76.9883 N.am      2 UNK        -0.4687 
     65 C         -79.7010   27.2485  -75.8684 C.2       1 UNK         0.5165 
     66 O         -78.6434   26.6275  -75.7460 O.2       1 UNK        -0.5079 
     67 H67       -81.7981   25.6533  -71.8342 H         1 UNK         0.0900 
     68 H68       -82.1959   24.4006  -73.0104 H         1 UNK         0.0900 
     69 H69       -83.4164   25.5852  -72.5338 H         1 UNK         0.0900 
     70 H70       -80.3554   27.0491  -72.8197 H         1 UNK         0.2959 
     71 H71       -81.0673   28.6856  -75.0414 H         1 UNK         0.1079 
     72 H72       -78.3770   28.3540  -73.6057 H         1 UNK         0.0837 
     73 H73       -78.7149   29.5524  -74.8225 H         1 UNK         0.0837 
     74 H74       -80.0508   28.2825  -71.2523 H         1 UNK         0.0685 
     75 H75       -80.0649   29.8232  -70.4452 H         1 UNK         0.0685 
     76 H76       -78.0006   27.0309  -71.3341 H         1 UNK         0.1434 
     77 H77       -74.3535   28.7879  -69.9150 H         1 UNK         0.1329 
     78 H78       -77.8808   31.1933  -70.3339 H         1 UNK         0.1335 
     79 H79       -75.9729   31.7933  -68.7426 H         1 UNK         0.0680 
     80 H80       -74.4323   31.0117  -68.9146 H         1 UNK         0.0680 
     81 H81       -72.7761   31.3871  -70.4255 H         1 UNK         0.1032 
     82 H82       -72.5482   33.0848  -70.7352 H         1 UNK         0.1032 
     83 H83       -73.1905   32.7457  -73.1300 H         1 UNK         0.0461 
     84 H84       -69.7353   30.6329  -73.2734 H         1 UNK         0.3453 
     85 H85       -71.2768   29.8077  -73.1931 H         1 UNK         0.3453 
     86 H86       -73.9401   30.1101  -72.2700 H         1 UNK         0.2984 
     87 H87       -74.8050   28.6378  -73.5284 H         1 UNK         0.0554 
     88 H88       -76.3032   28.2661  -75.4371 H         1 UNK         0.0847 
     89 H89       -75.4896   29.5192  -76.3742 H         1 UNK         0.0847 
     90 H90       -76.3993   29.9493  -74.9345 H         1 UNK         0.0847 
     91 H91       -73.8893   27.6305  -75.9803 H         1 UNK         0.3141 
     92 H92       -70.6222   26.9195  -75.4784 H         1 UNK         0.0743 
     93 H93       -70.9312   25.5258  -73.4820 H         1 UNK         0.0784 
     94 H94       -72.4300   24.8640  -74.1078 H         1 UNK         0.0784 
     95 H95       -70.8989   24.4925  -74.9011 H         1 UNK         0.0784 
     96 H96       -72.8940   25.3626  -76.5366 H         1 UNK         0.3213 
     97 H97       -72.9880   27.0909  -79.5819 H         1 UNK         0.0855 
     98 H98       -70.8749   25.8583  -80.1050 H         1 UNK         0.0814 
     99 H99       -72.2707   25.0328  -80.7750 H         1 UNK         0.0814 
    100 H100      -71.4998   24.4206  -79.3100 H         1 UNK         0.0814 
    101 H101      -73.9598   24.4975  -78.9372 H         1 UNK         0.3105 
    102 H102      -77.0956   25.5508  -78.2022 H         1 UNK         0.0547 
    103 H103      -76.0023   23.7943  -79.6045 H         1 UNK         0.0837 
    104 H104      -75.2665   23.0831  -78.1657 H         1 UNK         0.0837 
    105 H105      -77.0119   23.0913  -78.3596 H         1 UNK         0.0837 
    106 H106      -77.3386   25.1563  -76.0449 H         1 UNK         0.3020 
    107 H107      -75.2931   23.5767  -73.5441 H         1 UNK         0.1245 
    108 H108      -77.0913   25.2763  -72.5147 H         1 UNK         0.0781 
    109 H109      -76.6765   26.2696  -73.8809 H         1 UNK         0.0781 
    110 H110      -74.5811   26.3766  -70.0204 H         1 UNK         0.0836 
    111 H111      -76.1097   25.6233  -70.3683 H         1 UNK         0.0836 
    112 H112      -78.1654   23.7465  -74.0734 H         1 UNK         0.3022 
    113 H113      -78.3576   20.2103  -74.6758 H         1 UNK         0.0747 
    114 H114      -80.1165   20.5479  -72.9721 H         1 UNK         0.0793 
    115 H115      -78.5212   20.6958  -72.2536 H         1 UNK         0.0793 
    116 H116      -79.4711   22.1373  -72.5711 H         1 UNK         0.0793 
    117 H117      -79.7442   21.0886  -76.1101 H         1 UNK         0.3047 
    118 H118      -80.9125   22.4711  -77.3650 H         1 UNK         0.0822 
    119 H119      -83.2976   22.9940  -76.8657 H         1 UNK         0.0807 
    120 H120      -82.8676   23.5140  -75.2388 H         1 UNK         0.0807 
    121 H121      -82.6690   21.8315  -75.7085 H         1 UNK         0.0807 
    122 H122      -81.5297   25.2251  -76.4235 H         1 UNK         0.2946 
    123 H123      -79.1083   26.6947  -78.4824 H         1 UNK         0.1144 
    124 H124      -80.9393   27.9915  -79.5491 H         1 UNK         0.0793 
    125 H125      -82.1147   26.7575  -79.0911 H         1 UNK         0.0793 
    126 H126      -80.8467   26.3852  -80.2508 H         1 UNK         0.0793 
    127 H127      -81.3156   27.7584  -76.9839 H         1 UNK         0.2896 
@<TRIPOS>BOND
     1    1    2 1    
     2    1   67 1    
     3    1   68 1    
     4    1   69 1    
     5    2    3 2    
     6    2    4 am   BACKBONE|DICT|INTERRES
     7    4    5 1    
     8    4   70 1    
     9    5    6 1    
    10    5   65 1    
    11    5   71 1    
    12    6    7 1    
    13    6   72 1    
    14    6   73 1    
    15    7    8 1    
    16    8    9 1    
    17    8   74 1    
    18    8   75 1    
    19    9   10 ar   
    20    9   14 ar   
    21   10   11 ar   
    22   10   76 1    
    23   11   12 ar   
    24   11   48 1    
    25   12   13 ar   
    26   12   77 1    
    27   13   14 ar   
    28   13   15 1    
    29   14   78 1    
    30   15   16 1    
    31   15   79 1    
    32   15   80 1    
    33   16   17 1    
    34   17   18 1    
    35   17   81 1    
    36   17   82 1    
    37   18   19 1    
    38   18   22 1    
    39   18   83 1    
    40   19   20 am   BACKBONE|DICT|INTERRES
    41   19   21 2    
    42   20   84 1    
    43   20   85 1    
    44   22   23 am   BACKBONE|DICT|INTERRES
    45   22   86 1    
    46   23   24 2    
    47   23   25 1    
    48   25   26 1    
    49   25   27 1    
    50   25   87 1    
    51   26   88 1    
    52   26   89 1    
    53   26   90 1    
    54   27   28 am   BACKBONE|DICT|INTERRES
    55   27   91 1    
    56   28   29 2    
    57   28   30 1    
    58   30   31 1    
    59   30   32 1    
    60   30   92 1    
    61   31   93 1    
    62   31   94 1    
    63   31   95 1    
    64   32   33 am   BACKBONE|DICT|INTERRES
    65   32   96 1    
    66   33   34 2    
    67   33   35 1    
    68   35   36 1    
    69   35   37 1    
    70   35   97 1    
    71   36   98 1    
    72   36   99 1    
    73   36  100 1    
    74   37   38 am   BACKBONE|DICT|INTERRES
    75   37  101 1    
    76   38   39 2    
    77   38   40 1    
    78   40   41 1    
    79   40   42 1    
    80   40  102 1    
    81   41  103 1    
    82   41  104 1    
    83   41  105 1    
    84   42   43 am   BACKBONE|DICT|INTERRES
    85   42  106 1    
    86   43   44 2    
    87   43   45 1    
    88   45   46 1    
    89   45   49 1    
    90   45  107 1    
    91   46   47 1    
    92   46  108 1    
    93   46  109 1    
    94   47   48 1    
    95   48  110 1    
    96   48  111 1    
    97   49   50 am   BACKBONE|DICT|INTERRES
    98   49  112 1    
    99   50   51 2    
   100   50   52 1    
   101   52   53 1    
   102   52   54 1    
   103   52  113 1    
   104   53  114 1    
   105   53  115 1    
   106   53  116 1    
   107   54   55 am   BACKBONE|DICT|INTERRES
   108   54  117 1    
   109   55   56 2    
   110   55   57 1    
   111   57   58 1    
   112   57   59 1    
   113   57  118 1    
   114   58  119 1    
   115   58  120 1    
   116   58  121 1    
   117   59   60 am   BACKBONE|DICT|INTERRES
   118   59  122 1    
   119   60   61 2    
   120   60   62 1    
   121   62   63 1    
   122   62   64 1    
   123   62  123 1    
   124   63  124 1    
   125   63  125 1    
   126   63  126 1    
   127   64   65 am   BACKBONE|DICT|INTERRES
   128   64  127 1    
   129   65   66 2    
@<TRIPOS>SUBSTRUCTURE
     1 UNK         1 GROUP             0       ****    0 ROOT    
