@<TRIPOS>MOLECULE
3R135
127   129    1
SMALL
USER_CHARGES


@<TRIPOS>ATOM
      1 CA        -84.3454   28.5712  -76.0958 C.3       0 UNK        -0.1998 
      2 C         -83.0037   29.2669  -75.9226 C.2       0 UNK         0.4909 
      3 O         -82.7224   30.2381  -76.6252 O.2       0 UNK        -0.5240 
      4 N         -82.1759   28.7797  -74.9891 N.am      1 UNK        -0.4739 
      5 CA        -80.8395   29.3136  -74.6889 C.3       1 UNK         0.0864 
      6 C6        -80.2741   28.7433  -73.3645 C.3       11 UNK        -0.0881 
      7 S7        -81.3688   28.9969  -71.9260 S.3       11 UNK        -0.2682 
      8 C8        -80.2054   29.6177  -70.6658 C.3       11 UNK         0.0289 
      9 C9        -79.0230   28.6814  -70.4390 C.ar      11 UNK        -0.0687 
     10 C10       -79.2252   27.3697  -69.9991 C.ar      11 UNK        -0.0823 
     11 C11       -78.1398   26.5109  -69.7953 C.ar      11 UNK        -0.0830 
     12 C12       -76.8422   26.9727  -70.0392 C.ar      11 UNK        -0.1021 
     13 C13       -76.6252   28.2841  -70.4754 C.ar      11 UNK        -0.0753 
     14 C14       -77.7200   29.1340  -70.6634 C.ar      11 UNK        -0.0933 
     15 C15       -75.2094   28.7917  -70.7182 C.3       11 UNK         0.0166 
     16 S16       -75.0016   29.4537  -72.4005 S.3       11 UNK        -0.2615 
     17 C17       -73.2396   29.9251  -72.3688 C.3       11 UNK        -0.0865 
     18 CA        -72.8295   30.7834  -73.5954 C.3       10 UNK         0.0862 
     19 C         -71.3380   31.2233  -73.4918 C.2       10 UNK         0.5551 
     20 N         -70.4566   30.8457  -74.4118 N.am      10 UNK        -0.7319 
     21 O         -70.9746   31.9273  -72.5529 O.2       10 UNK        -0.5018 
     22 N         -73.1824   30.1139  -74.8547 N.am      10 UNK        -0.4509 
     23 C         -73.2831   30.6982  -76.0541 C.2       10 UNK         0.4899 
     24 O         -73.1712   31.9108  -76.2404 O.2       10 UNK        -0.4839 
     25 CA        -73.5362   29.7468  -77.2414 C.3       9 UNK         0.0222 
     26 CB        -73.1322   30.3594  -78.5992 C.3       9 UNK        -0.1966 
     27 N         -72.9161   28.4260  -77.0535 N.am      9 UNK        -0.4218 
     28 C         -71.6079   28.1602  -76.8856 C.2       9 UNK         0.5020 
     29 O         -70.7352   29.0299  -76.8994 O.2       9 UNK        -0.5274 
     30 CA        -71.1889   26.7041  -76.5881 C.3       8 UNK         0.0270 
     31 CB        -70.3855   26.6291  -75.2768 C.3       8 UNK        -0.1976 
     32 N         -72.3166   25.7749  -76.4929 N.am      8 UNK        -0.4313 
     33 C         -72.9805   25.2485  -77.5298 C.2       8 UNK         0.5041 
     34 O         -72.6566   25.4156  -78.7056 O.2       8 UNK        -0.5577 
     35 CA        -74.2469   24.4352  -77.2016 C.3       7 UNK         0.0284 
     36 CB        -73.9420   22.9299  -77.2422 C.3       7 UNK        -0.1958 
     37 N         -74.8662   24.7833  -75.9124 N.am      7 UNK        -0.4454 
     38 C         -75.3847   25.9869  -75.6149 C.2       7 UNK         0.5089 
     39 O         -75.4114   26.9155  -76.4234 O.2       7 UNK        -0.5125 
     40 CA        -75.9318   26.2098  -74.1937 C.3       6 UNK         0.0408 
     41 CB        -77.2066   27.0668  -74.1960 C.3       6 UNK        -0.1791 
     42 N         -76.2198   24.9495  -73.5138 N.am      6 UNK        -0.4762 
     43 C         -75.5196   24.4365  -72.4931 C.2       6 UNK         0.5007 
     44 O         -74.5289   24.9805  -72.0040 O.2       6 UNK        -0.5032 
     45 CA        -75.9750   23.0707  -71.9316 C.3       5 UNK         0.0783 
     46 C46       -76.6651   23.2159  -70.5515 C.3       11 UNK        -0.0857 
     47 S47       -78.3732   23.8700  -70.6278 S.3       11 UNK        -0.2512 
     48 C48       -78.3762   25.0975  -69.2824 C.3       11 UNK         0.0225 
     49 N         -76.7920   22.2892  -72.8675 N.am      5 UNK        -0.4615 
     50 C         -76.3701   21.7931  -74.0363 C.2       4 UNK         0.5053 
     51 O         -75.2116   21.9033  -74.4379 O.2       4 UNK        -0.5105 
     52 CA        -77.4142   21.1026  -74.9373 C.3       4 UNK         0.0263 
     53 CB        -78.7749   20.8438  -74.2490 C.3       4 UNK        -0.1981 
     54 N         -77.6061   21.8384  -76.1948 N.am      4 UNK        -0.4224 
     55 C         -77.9644   23.1256  -76.3232 C.2       3 UNK         0.4895 
     56 O         -78.2042   23.8626  -75.3638 O.2       3 UNK        -0.5091 
     57 CA        -78.0113   23.6714  -77.7660 C.3       3 UNK         0.0250 
     58 CB        -79.0718   22.9453  -78.6222 C.3       3 UNK        -0.1996 
     59 N         -78.1770   25.1333  -77.8282 N.am      3 UNK        -0.4254 
     60 C         -79.2569   25.8507  -77.4848 C.2       2 UNK         0.5004 
     61 O         -80.3467   25.3723  -77.1551 O.2       2 UNK        -0.5226 
     62 CA        -79.0987   27.3757  -77.5268 C.3       2 UNK         0.0269 
     63 CB        -79.4210   27.9355  -78.9229 C.3       2 UNK        -0.1926 
     64 N         -80.0177   27.9353  -76.5431 N.am      2 UNK        -0.4687 
     65 C         -79.8284   29.0472  -75.8251 C.2       1 UNK         0.5165 
     66 O         -78.8915   29.8262  -76.0039 O.2       1 UNK        -0.5079 
     67 H67       -84.4416   28.1901  -77.1121 H         1 UNK         0.0900 
     68 H68       -84.4628   27.7344  -75.4073 H         1 UNK         0.0900 
     69 H69       -85.1584   29.2742  -75.9164 H         1 UNK         0.0900 
     70 H70       -82.4706   27.9998  -74.4183 H         1 UNK         0.2959 
     71 H71       -80.9281   30.3975  -74.5851 H         1 UNK         0.1079 
     72 H72       -79.3033   29.1978  -73.1574 H         1 UNK         0.0837 
     73 H73       -80.0930   27.6699  -73.4509 H         1 UNK         0.0837 
     74 H74       -80.7410   29.7480  -69.7247 H         1 UNK         0.0685 
     75 H75       -79.8642   30.6101  -70.9648 H         1 UNK         0.0685 
     76 H76       -80.2322   27.0192  -69.8180 H         1 UNK         0.1434 
     77 H77       -76.0006   26.3118  -69.8842 H         1 UNK         0.1329 
     78 H78       -77.5525   30.1492  -70.9964 H         1 UNK         0.1335 
     79 H79       -74.4823   27.9925  -70.5640 H         1 UNK         0.0680 
     80 H80       -74.9816   29.5715  -69.9903 H         1 UNK         0.0680 
     81 H81       -72.6373   29.0160  -72.3169 H         1 UNK         0.1032 
     82 H82       -73.0480   30.4733  -71.4441 H         1 UNK         0.1032 
     83 H83       -73.4120   31.7059  -73.5541 H         1 UNK         0.0461 
     84 H84       -70.7334   30.2808  -75.2056 H         1 UNK         0.3453 
     85 H85       -69.4989   31.1458  -74.3238 H         1 UNK         0.3453 
     86 H86       -73.3125   29.1160  -74.7989 H         1 UNK         0.2984 
     87 H87       -74.6132   29.5740  -77.2651 H         1 UNK         0.0554 
     88 H88       -73.6973   31.2701  -78.8012 H         1 UNK         0.0847 
     89 H89       -73.3286   29.6694  -79.4197 H         1 UNK         0.0847 
     90 H90       -72.0742   30.6220  -78.6272 H         1 UNK         0.0847 
     91 H91       -73.5762   27.6575  -76.9933 H         1 UNK         0.3141 
     92 H92       -70.5395   26.3837  -77.4056 H         1 UNK         0.0743 
     93 H93       -69.4928   27.2545  -75.3253 H         1 UNK         0.0784 
     94 H94       -70.9725   26.9675  -74.4220 H         1 UNK         0.0784 
     95 H95       -70.0504   25.6117  -75.0737 H         1 UNK         0.0784 
     96 H96       -72.6513   25.5631  -75.5640 H         1 UNK         0.3213 
     97 H97       -74.9703   24.6579  -77.9875 H         1 UNK         0.0855 
     98 H98       -73.2584   22.6351  -76.4450 H         1 UNK         0.0814 
     99 H99       -73.4795   22.6485  -78.1894 H         1 UNK         0.0814 
    100 H100      -74.8493   22.3358  -77.1406 H         1 UNK         0.0814 
    101 H101      -74.8930   24.0569  -75.2065 H         1 UNK         0.3105 
    102 H102      -75.1619   26.7621  -73.6535 H         1 UNK         0.0547 
    103 H103      -77.5473   27.2573  -73.1782 H         1 UNK         0.0837 
    104 H104      -78.0181   26.5784  -74.7346 H         1 UNK         0.0837 
    105 H105      -77.0313   28.0376  -74.6615 H         1 UNK         0.0837 
    106 H106      -77.0056   24.4229  -73.8883 H         1 UNK         0.3020 
    107 H107      -75.0544   22.5038  -71.7730 H         1 UNK         0.1245 
    108 H108      -76.0538   23.8269  -69.8850 H         1 UNK         0.0781 
    109 H109      -76.7168   22.2365  -70.0736 H         1 UNK         0.0781 
    110 H110      -77.6351   24.8412  -68.5241 H         1 UNK         0.0836 
    111 H111      -79.3414   25.0448  -68.7762 H         1 UNK         0.0836 
    112 H112      -77.7685   22.1998  -72.6252 H         1 UNK         0.3022 
    113 H113      -76.9892   20.1337  -75.2033 H         1 UNK         0.0747 
    114 H114      -79.4410   20.2841  -74.9058 H         1 UNK         0.0793 
    115 H115      -78.6531   20.2501  -73.3419 H         1 UNK         0.0793 
    116 H116      -79.2873   21.7677  -73.9780 H         1 UNK         0.0793 
    117 H117      -77.3938   21.3166  -77.0336 H         1 UNK         0.3047 
    118 H118      -77.0364   23.4666  -78.2093 H         1 UNK         0.0822 
    119 H119      -79.1413   23.3793  -79.6197 H         1 UNK         0.0807 
    120 H120      -80.0627   22.9882  -78.1690 H         1 UNK         0.0807 
    121 H121      -78.8246   21.8911  -78.7496 H         1 UNK         0.0807 
    122 H122      -77.3390   25.6452  -78.0672 H         1 UNK         0.2946 
    123 H123      -78.0718   27.6323  -77.2533 H         1 UNK         0.1144 
    124 H124      -80.4401   27.6934  -79.2272 H         1 UNK         0.0793 
    125 H125      -78.7470   27.5241  -79.6752 H         1 UNK         0.0793 
    126 H126      -79.3131   29.0200  -78.9488 H         1 UNK         0.0793 
    127 H127      -80.7940   27.3263  -76.3138 H         1 UNK         0.2896 
@<TRIPOS>BOND
     1    1    2 1    
     2    1   67 1    
     3    1   68 1    
     4    1   69 1    
     5    2    3 2    
     6    2    4 am   BACKBONE|DICT|INTERRES
     7    4    5 1    
     8    4   70 1    
     9    5    6 1    
    10    5   65 1    
    11    5   71 1    
    12    6    7 1    
    13    6   72 1    
    14    6   73 1    
    15    7    8 1    
    16    8    9 1    
    17    8   74 1    
    18    8   75 1    
    19    9   10 ar   
    20    9   14 ar   
    21   10   11 ar   
    22   10   76 1    
    23   11   12 ar   
    24   11   48 1    
    25   12   13 ar   
    26   12   77 1    
    27   13   14 ar   
    28   13   15 1    
    29   14   78 1    
    30   15   16 1    
    31   15   79 1    
    32   15   80 1    
    33   16   17 1    
    34   17   18 1    
    35   17   81 1    
    36   17   82 1    
    37   18   19 1    
    38   18   22 1    
    39   18   83 1    
    40   19   20 am   BACKBONE|DICT|INTERRES
    41   19   21 2    
    42   20   84 1    
    43   20   85 1    
    44   22   23 am   BACKBONE|DICT|INTERRES
    45   22   86 1    
    46   23   24 2    
    47   23   25 1    
    48   25   26 1    
    49   25   27 1    
    50   25   87 1    
    51   26   88 1    
    52   26   89 1    
    53   26   90 1    
    54   27   28 am   BACKBONE|DICT|INTERRES
    55   27   91 1    
    56   28   29 2    
    57   28   30 1    
    58   30   31 1    
    59   30   32 1    
    60   30   92 1    
    61   31   93 1    
    62   31   94 1    
    63   31   95 1    
    64   32   33 am   BACKBONE|DICT|INTERRES
    65   32   96 1    
    66   33   34 2    
    67   33   35 1    
    68   35   36 1    
    69   35   37 1    
    70   35   97 1    
    71   36   98 1    
    72   36   99 1    
    73   36  100 1    
    74   37   38 am   BACKBONE|DICT|INTERRES
    75   37  101 1    
    76   38   39 2    
    77   38   40 1    
    78   40   41 1    
    79   40   42 1    
    80   40  102 1    
    81   41  103 1    
    82   41  104 1    
    83   41  105 1    
    84   42   43 am   BACKBONE|DICT|INTERRES
    85   42  106 1    
    86   43   44 2    
    87   43   45 1    
    88   45   46 1    
    89   45   49 1    
    90   45  107 1    
    91   46   47 1    
    92   46  108 1    
    93   46  109 1    
    94   47   48 1    
    95   48  110 1    
    96   48  111 1    
    97   49   50 am   BACKBONE|DICT|INTERRES
    98   49  112 1    
    99   50   51 2    
   100   50   52 1    
   101   52   53 1    
   102   52   54 1    
   103   52  113 1    
   104   53  114 1    
   105   53  115 1    
   106   53  116 1    
   107   54   55 am   BACKBONE|DICT|INTERRES
   108   54  117 1    
   109   55   56 2    
   110   55   57 1    
   111   57   58 1    
   112   57   59 1    
   113   57  118 1    
   114   58  119 1    
   115   58  120 1    
   116   58  121 1    
   117   59   60 am   BACKBONE|DICT|INTERRES
   118   59  122 1    
   119   60   61 2    
   120   60   62 1    
   121   62   63 1    
   122   62   64 1    
   123   62  123 1    
   124   63  124 1    
   125   63  125 1    
   126   63  126 1    
   127   64   65 am   BACKBONE|DICT|INTERRES
   128   64  127 1    
   129   65   66 2    
@<TRIPOS>SUBSTRUCTURE
     1 UNK         1 GROUP             0       ****    0 ROOT    
