@<TRIPOS>MOLECULE
3R135
127   129    1
SMALL
USER_CHARGES


@<TRIPOS>ATOM
      1 CA        -82.5868   24.6344  -69.7118 C.3       0 UNK        -0.1998 
      2 C         -81.9669   25.3971  -70.8726 C.2       0 UNK         0.4909 
      3 O         -80.8452   25.0873  -71.2735 O.2       0 UNK        -0.5240 
      4 N         -82.7010   26.3735  -71.4263 N.am      1 UNK        -0.4739 
      5 CA        -82.3308   27.3002  -72.5147 C.3       1 UNK         0.0864 
      6 C6        -81.0761   28.1606  -72.2150 C.3       11 UNK        -0.0881 
      7 S7        -81.1875   29.0676  -70.6292 S.3       11 UNK        -0.2682 
      8 C8        -80.1247   30.5240  -70.9271 C.3       11 UNK         0.0289 
      9 C9        -78.8137   30.1724  -71.6208 C.ar      11 UNK        -0.0687 
     10 C10       -77.9824   29.1716  -71.1074 C.ar      11 UNK        -0.0823 
     11 C11       -76.8378   28.7750  -71.8027 C.ar      11 UNK        -0.0830 
     12 C12       -76.5080   29.4137  -73.0015 C.ar      11 UNK        -0.1021 
     13 C13       -77.2958   30.4579  -73.4950 C.ar      11 UNK        -0.0753 
     14 C14       -78.4521   30.8270  -72.8024 C.ar      11 UNK        -0.0933 
     15 C15       -76.9323   31.1532  -74.8011 C.3       11 UNK         0.0166 
     16 S16       -75.6835   32.4731  -74.6062 S.3       11 UNK        -0.2615 
     17 C17       -74.1687   31.5963  -74.0718 C.3       11 UNK        -0.0865 
     18 CA        -73.5622   30.6450  -75.1503 C.3       10 UNK         0.0862 
     19 C         -72.6483   31.3397  -76.2010 C.2       10 UNK         0.5551 
     20 N         -72.1680   30.5916  -77.1856 N.am      10 UNK        -0.7319 
     21 O         -72.3690   32.5347  -76.1345 O.2       10 UNK        -0.5018 
     22 N         -72.9452   29.4408  -74.5608 N.am      10 UNK        -0.4509 
     23 C         -71.8697   29.4585  -73.7615 C.2       10 UNK         0.4899 
     24 O         -71.3025   30.4949  -73.4136 O.2       10 UNK        -0.4839 
     25 CA        -71.3172   28.1272  -73.2314 C.3       9 UNK         0.0222 
     26 CB        -71.6714   27.9494  -71.7440 C.3       9 UNK        -0.1966 
     27 N         -71.7487   26.9352  -73.9731 N.am      9 UNK        -0.4218 
     28 C         -70.9231   25.9216  -74.2753 C.2       9 UNK         0.5020 
     29 O         -69.7031   25.9511  -74.1014 O.2       9 UNK        -0.5274 
     30 CA        -71.5548   24.6277  -74.8121 C.3       8 UNK         0.0270 
     31 CB        -72.2634   23.8671  -73.6787 C.3       8 UNK        -0.1976 
     32 N         -72.4736   24.8343  -75.9320 N.am      8 UNK        -0.4313 
     33 C         -72.0930   25.1954  -77.1660 C.2       8 UNK         0.5041 
     34 O         -70.9241   25.4142  -77.4875 O.2       8 UNK        -0.5577 
     35 CA        -73.1968   25.3212  -78.2315 C.3       7 UNK         0.0284 
     36 CB        -73.5495   23.9429  -78.8138 C.3       7 UNK        -0.1958 
     37 N         -74.4107   25.9594  -77.7238 N.am      7 UNK        -0.4454 
     38 C         -74.4848   27.2335  -77.3196 C.2       7 UNK         0.5089 
     39 O         -73.5555   28.0381  -77.3911 O.2       7 UNK        -0.5125 
     40 CA        -75.8030   27.6666  -76.6597 C.3       6 UNK         0.0408 
     41 CB        -76.8686   28.0283  -77.7042 C.3       6 UNK        -0.1791 
     42 N         -76.3195   26.6802  -75.7116 N.am      6 UNK        -0.4762 
     43 C         -75.6670   26.2776  -74.6098 C.2       6 UNK         0.5007 
     44 O         -74.5631   26.7112  -74.2697 O.2       6 UNK        -0.5032 
     45 CA        -76.3491   25.1726  -73.7833 C.3       5 UNK         0.0783 
     46 C46       -77.4261   25.7627  -72.8333 C.3       11 UNK        -0.0857 
     47 S47       -76.8094   26.0511  -71.1403 S.3       11 UNK        -0.2512 
     48 C48       -75.9554   27.6595  -71.2598 C.3       11 UNK         0.0225 
     49 N         -76.8965   24.1389  -74.6675 N.am      5 UNK        -0.4615 
     50 C         -76.1510   23.3006  -75.4031 C.2       4 UNK         0.5053 
     51 O         -74.9222   23.2753  -75.3700 O.2       4 UNK        -0.5105 
     52 CA        -76.8933   22.3723  -76.3803 C.3       4 UNK         0.0263 
     53 CB        -77.3627   21.0970  -75.6629 C.3       4 UNK        -0.1981 
     54 N         -78.0371   23.0251  -77.0199 N.am      4 UNK        -0.4224 
     55 C         -77.9505   24.0946  -77.8245 C.2       3 UNK         0.4895 
     56 O         -76.8833   24.5773  -78.2012 O.2       3 UNK        -0.5091 
     57 CA        -79.2699   24.7736  -78.2374 C.3       3 UNK         0.0250 
     58 CB        -79.7123   24.2845  -79.6252 C.3       3 UNK        -0.1996 
     59 N         -80.3654   24.5823  -77.2783 N.am      3 UNK        -0.4254 
     60 C         -80.3530   24.9913  -76.0012 C.2       2 UNK         0.5004 
     61 O         -79.4039   25.5845  -75.4807 O.2       2 UNK        -0.5226 
     62 CA        -81.5664   24.5746  -75.1560 C.3       2 UNK         0.0269 
     63 CB        -81.4284   23.1050  -74.7219 C.3       2 UNK        -0.1926 
     64 N         -81.7141   25.3933  -73.9546 N.am      2 UNK        -0.4687 
     65 C         -82.2216   26.6293  -73.9045 C.2       1 UNK         0.5165 
     66 O         -82.6370   27.2291  -74.8974 O.2       1 UNK        -0.5079 
     67 H67       -83.5848   24.9992  -69.4692 H         1 UNK         0.0900 
     68 H68       -82.6622   23.5753  -69.9566 H         1 UNK         0.0900 
     69 H69       -81.9637   24.7358  -68.8237 H         1 UNK         0.0900 
     70 H70       -83.6259   26.5351  -71.0523 H         1 UNK         0.2959 
     71 H71       -83.1737   27.9892  -72.5928 H         1 UNK         0.1079 
     72 H72       -80.9238   28.8840  -73.0186 H         1 UNK         0.0837 
     73 H73       -80.1791   27.5387  -72.1931 H         1 UNK         0.0837 
     74 H74       -80.6911   31.2459  -71.5174 H         1 UNK         0.0685 
     75 H75       -79.9070   31.0068  -69.9736 H         1 UNK         0.0685 
     76 H76       -78.2525   28.6670  -70.1897 H         1 UNK         0.1434 
     77 H77       -75.6301   29.1036  -73.5490 H         1 UNK         0.1329 
     78 H78       -79.0836   31.6110  -73.1977 H         1 UNK         0.1335 
     79 H79       -76.6045   30.4261  -75.5387 H         1 UNK         0.0680 
     80 H80       -77.8267   31.6057  -75.2321 H         1 UNK         0.0680 
     81 H81       -73.4325   32.3376  -73.7562 H         1 UNK         0.1032 
     82 H82       -74.4030   31.0515  -73.1584 H         1 UNK         0.1032 
     83 H83       -74.3869   30.2708  -75.7457 H         1 UNK         0.0461 
     84 H84       -72.4564   29.6206  -77.2684 H         1 UNK         0.3453 
     85 H85       -71.5695   31.0051  -77.8823 H         1 UNK         0.3453 
     86 H86       -73.3438   28.5541  -74.8373 H         1 UNK         0.2984 
     87 H87       -70.2322   28.2286  -73.3005 H         1 UNK         0.0554 
     88 H88       -71.3580   28.8143  -71.1575 H         1 UNK         0.0847 
     89 H89       -71.1745   27.0767  -71.3201 H         1 UNK         0.0847 
     90 H90       -72.7439   27.8274  -71.5979 H         1 UNK         0.0847 
     91 H91       -72.7488   26.8152  -74.1274 H         1 UNK         0.3141 
     92 H92       -70.7407   23.9939  -75.1706 H         1 UNK         0.0743 
     93 H93       -73.1302   24.4118  -73.3044 H         1 UNK         0.0784 
     94 H94       -72.6013   22.8857  -74.0117 H         1 UNK         0.0784 
     95 H95       -71.5905   23.7061  -72.8353 H         1 UNK         0.0784 
     96 H96       -73.4482   24.6010  -75.7691 H         1 UNK         0.3213 
     97 H97       -72.8072   25.9437  -79.0400 H         1 UNK         0.0855 
     98 H98       -73.9678   23.2791  -78.0563 H         1 UNK         0.0814 
     99 H99       -72.6650   23.4546  -79.2249 H         1 UNK         0.0814 
    100 H100      -74.2782   24.0283  -79.6203 H         1 UNK         0.0814 
    101 H101      -75.2545   25.3911  -77.6899 H         1 UNK         0.3105 
    102 H102      -75.5967   28.5559  -76.0753 H         1 UNK         0.0547 
    103 H103      -76.5330   28.8620  -78.3222 H         1 UNK         0.0837 
    104 H104      -77.0804   27.1977  -78.3760 H         1 UNK         0.0837 
    105 H105      -77.8041   28.3304  -77.2330 H         1 UNK         0.0837 
    106 H106      -77.2283   26.2773  -75.9057 H         1 UNK         0.3020 
    107 H107      -75.5733   24.6921  -73.1832 H         1 UNK         0.1245 
    108 H108      -78.2526   25.0581  -72.7248 H         1 UNK         0.0781 
    109 H109      -77.8905   26.6676  -73.2309 H         1 UNK         0.0781 
    110 H110      -75.0608   27.5407  -71.8690 H         1 UNK         0.0836 
    111 H111      -75.6041   27.9416  -70.2665 H         1 UNK         0.0836 
    112 H112      -77.8972   24.1680  -74.8143 H         1 UNK         0.3022 
    113 H113      -76.1894   22.0865  -77.1648 H         1 UNK         0.0747 
    114 H114      -77.8186   20.3942  -76.3606 H         1 UNK         0.0793 
    115 H115      -76.5225   20.5841  -75.1923 H         1 UNK         0.0793 
    116 H116      -78.0909   21.3153  -74.8806 H         1 UNK         0.0793 
    117 H117      -78.9546   22.6815  -76.7792 H         1 UNK         0.3047 
    118 H118      -79.0769   25.8460  -78.2992 H         1 UNK         0.0822 
    119 H119      -80.5913   24.8255  -79.9762 H         1 UNK         0.0807 
    120 H120      -79.9500   23.2200  -79.6229 H         1 UNK         0.0807 
    121 H121      -78.9236   24.4404  -80.3630 H         1 UNK         0.0807 
    122 H122      -81.1777   24.0889  -77.6214 H         1 UNK         0.2946 
    123 H123      -82.4676   24.6852  -75.7638 H         1 UNK         0.1144 
    124 H124      -80.5353   22.9458  -74.1156 H         1 UNK         0.0793 
    125 H125      -81.3637   22.4388  -75.5831 H         1 UNK         0.0793 
    126 H126      -82.2894   22.7844  -74.1349 H         1 UNK         0.0793 
    127 H127      -81.3333   25.0226  -73.0879 H         1 UNK         0.2896 
@<TRIPOS>BOND
     1    1    2 1    
     2    1   67 1    
     3    1   68 1    
     4    1   69 1    
     5    2    3 2    
     6    2    4 am   BACKBONE|DICT|INTERRES
     7    4    5 1    
     8    4   70 1    
     9    5    6 1    
    10    5   65 1    
    11    5   71 1    
    12    6    7 1    
    13    6   72 1    
    14    6   73 1    
    15    7    8 1    
    16    8    9 1    
    17    8   74 1    
    18    8   75 1    
    19    9   10 ar   
    20    9   14 ar   
    21   10   11 ar   
    22   10   76 1    
    23   11   12 ar   
    24   11   48 1    
    25   12   13 ar   
    26   12   77 1    
    27   13   14 ar   
    28   13   15 1    
    29   14   78 1    
    30   15   16 1    
    31   15   79 1    
    32   15   80 1    
    33   16   17 1    
    34   17   18 1    
    35   17   81 1    
    36   17   82 1    
    37   18   19 1    
    38   18   22 1    
    39   18   83 1    
    40   19   20 am   BACKBONE|DICT|INTERRES
    41   19   21 2    
    42   20   84 1    
    43   20   85 1    
    44   22   23 am   BACKBONE|DICT|INTERRES
    45   22   86 1    
    46   23   24 2    
    47   23   25 1    
    48   25   26 1    
    49   25   27 1    
    50   25   87 1    
    51   26   88 1    
    52   26   89 1    
    53   26   90 1    
    54   27   28 am   BACKBONE|DICT|INTERRES
    55   27   91 1    
    56   28   29 2    
    57   28   30 1    
    58   30   31 1    
    59   30   32 1    
    60   30   92 1    
    61   31   93 1    
    62   31   94 1    
    63   31   95 1    
    64   32   33 am   BACKBONE|DICT|INTERRES
    65   32   96 1    
    66   33   34 2    
    67   33   35 1    
    68   35   36 1    
    69   35   37 1    
    70   35   97 1    
    71   36   98 1    
    72   36   99 1    
    73   36  100 1    
    74   37   38 am   BACKBONE|DICT|INTERRES
    75   37  101 1    
    76   38   39 2    
    77   38   40 1    
    78   40   41 1    
    79   40   42 1    
    80   40  102 1    
    81   41  103 1    
    82   41  104 1    
    83   41  105 1    
    84   42   43 am   BACKBONE|DICT|INTERRES
    85   42  106 1    
    86   43   44 2    
    87   43   45 1    
    88   45   46 1    
    89   45   49 1    
    90   45  107 1    
    91   46   47 1    
    92   46  108 1    
    93   46  109 1    
    94   47   48 1    
    95   48  110 1    
    96   48  111 1    
    97   49   50 am   BACKBONE|DICT|INTERRES
    98   49  112 1    
    99   50   51 2    
   100   50   52 1    
   101   52   53 1    
   102   52   54 1    
   103   52  113 1    
   104   53  114 1    
   105   53  115 1    
   106   53  116 1    
   107   54   55 am   BACKBONE|DICT|INTERRES
   108   54  117 1    
   109   55   56 2    
   110   55   57 1    
   111   57   58 1    
   112   57   59 1    
   113   57  118 1    
   114   58  119 1    
   115   58  120 1    
   116   58  121 1    
   117   59   60 am   BACKBONE|DICT|INTERRES
   118   59  122 1    
   119   60   61 2    
   120   60   62 1    
   121   62   63 1    
   122   62   64 1    
   123   62  123 1    
   124   63  124 1    
   125   63  125 1    
   126   63  126 1    
   127   64   65 am   BACKBONE|DICT|INTERRES
   128   64  127 1    
   129   65   66 2    
@<TRIPOS>SUBSTRUCTURE
     1 UNK         1 GROUP             0       ****    0 ROOT    
