@<TRIPOS>MOLECULE
3R135
127   129    1
SMALL
USER_CHARGES


@<TRIPOS>ATOM
      1 CA        -83.3329   23.8428  -68.1431 C.3       0 UNK        -0.1998 
      2 C         -83.2440   24.7629  -69.3515 C.2       0 UNK         0.4909 
      3 O         -84.2484   25.3598  -69.7402 O.2       0 UNK        -0.5240 
      4 N         -82.0479   24.8853  -69.9436 N.am      1 UNK        -0.4739 
      5 CA        -81.7800   25.6970  -71.1375 C.3       1 UNK         0.0864 
      6 C6        -80.2566   25.8800  -71.3438 C.3       11 UNK        -0.0881 
      7 S7        -79.8358   27.0971  -72.6363 S.3       11 UNK        -0.2682 
      8 C8        -79.1266   28.4571  -71.6508 C.3       11 UNK         0.0289 
      9 C9        -78.4656   29.5100  -72.5318 C.ar      11 UNK        -0.0687 
     10 C10       -79.1645   30.0691  -73.6052 C.ar      11 UNK        -0.0823 
     11 C11       -78.5513   30.9980  -74.4483 C.ar      11 UNK        -0.0830 
     12 C12       -77.2476   31.4189  -74.1762 C.ar      11 UNK        -0.1021 
     13 C13       -76.5401   30.8805  -73.0977 C.ar      11 UNK        -0.0753 
     14 C14       -77.1521   29.9225  -72.2813 C.ar      11 UNK        -0.0933 
     15 C15       -75.1138   31.3361  -72.8230 C.3       11 UNK         0.0166 
     16 S16       -73.9614   30.8180  -74.1352 S.3       11 UNK        -0.2615 
     17 C17       -73.8566   29.0202  -73.8404 C.3       11 UNK        -0.0865 
     18 CA        -72.6189   28.6307  -72.9938 C.3       10 UNK         0.0862 
     19 C         -72.6889   27.1439  -72.5332 C.2       10 UNK         0.5551 
     20 N         -71.7364   26.2829  -72.8756 N.am      10 UNK        -0.7319 
     21 O         -73.6188   26.7701  -71.8233 O.2       10 UNK        -0.5018 
     22 N         -71.3689   28.9951  -73.6767 N.am      10 UNK        -0.4509 
     23 C         -70.1947   29.2047  -73.0685 C.2       10 UNK         0.4899 
     24 O         -70.0545   29.2176  -71.8443 O.2       10 UNK        -0.4839 
     25 CA        -68.9707   29.4334  -73.9838 C.3       9 UNK         0.0222 
     26 CB        -67.6412   29.0592  -73.2940 C.3       9 UNK        -0.1966 
     27 N         -69.0732   28.7708  -75.2938 N.am      9 UNK        -0.4218 
     28 C         -69.2596   27.4620  -75.5196 C.2       9 UNK         0.5020 
     29 O         -69.3544   26.6094  -74.6326 O.2       9 UNK        -0.5274 
     30 CA        -69.3781   27.0335  -76.9906 C.3       8 UNK         0.0270 
     31 CB        -68.0740   26.3759  -77.4704 C.3       8 UNK        -0.1976 
     32 N         -70.4912   26.1006  -77.1741 N.am      8 UNK        -0.4313 
     33 C         -71.7824   26.4257  -77.0315 C.2       8 UNK         0.5041 
     34 O         -72.1783   27.5690  -76.7884 O.2       8 UNK        -0.5577 
     35 CA        -72.7845   25.2668  -77.1462 C.3       7 UNK         0.0284 
     36 CB        -72.9799   24.5835  -75.7831 C.3       7 UNK        -0.1958 
     37 N         -74.0798   25.7289  -77.6489 N.am      7 UNK        -0.4454 
     38 C         -74.3517   25.9155  -78.9489 C.2       7 UNK         0.5089 
     39 O         -73.5317   25.7074  -79.8451 O.2       7 UNK        -0.5125 
     40 CA        -75.7706   26.3701  -79.3460 C.3       6 UNK         0.0408 
     41 CB        -76.5115   25.2340  -80.0710 C.3       6 UNK        -0.1791 
     42 N         -76.5879   26.8120  -78.2158 N.am      6 UNK        -0.4762 
     43 C         -76.5344   28.0353  -77.6655 C.2       6 UNK         0.5007 
     44 O         -75.8004   28.9325  -78.0806 O.2       6 UNK        -0.5032 
     45 CA        -77.4406   28.2911  -76.4352 C.3       5 UNK         0.0783 
     46 C46       -78.7840   28.9482  -76.8586 C.3       11 UNK        -0.0857 
     47 S47       -78.6223   30.7370  -77.2038 S.3       11 UNK        -0.2512 
     48 C48       -79.2803   31.5014  -75.6837 C.3       11 UNK         0.0225 
     49 N         -77.6733   27.0772  -75.6383 N.am      5 UNK        -0.4615 
     50 C         -76.7155   26.3093  -75.0979 C.2       4 UNK         0.5053 
     51 O         -75.5246   26.6049  -75.1220 O.2       4 UNK        -0.5105 
     52 CA        -77.1194   24.9427  -74.5130 C.3       4 UNK         0.0263 
     53 CB        -76.8954   24.8940  -72.9927 C.3       4 UNK        -0.1981 
     54 N         -78.4808   24.5024  -74.8577 N.am      4 UNK        -0.4224 
     55 C         -78.8579   24.1631  -76.1025 C.2       3 UNK         0.4895 
     56 O         -78.1191   24.2970  -77.0800 O.2       3 UNK        -0.5091 
     57 CA        -80.2701   23.5924  -76.3235 C.3       3 UNK         0.0250 
     58 CB        -80.2152   22.2789  -77.1318 C.3       3 UNK        -0.1996 
     59 N         -81.0319   23.3815  -75.0860 N.am      3 UNK        -0.4254 
     60 C         -82.3720   23.3650  -75.0286 C.2       2 UNK         0.5004 
     61 O         -83.1045   23.5775  -75.9960 O.2       2 UNK        -0.5226 
     62 CA        -83.0091   23.0520  -73.6636 C.3       2 UNK         0.0269 
     63 CB        -82.9666   21.5424  -73.3733 C.3       2 UNK        -0.1926 
     64 N         -82.3955   23.7840  -72.5527 N.am      2 UNK        -0.4687 
     65 C         -82.4693   25.1144  -72.3914 C.2       1 UNK         0.5165 
     66 O         -83.0690   25.8643  -73.1632 O.2       1 UNK        -0.5079 
     67 H67       -82.3719   23.3874  -67.9046 H         1 UNK         0.0900 
     68 H68       -83.6689   24.4017  -67.2701 H         1 UNK         0.0900 
     69 H69       -84.0490   23.0435  -68.3325 H         1 UNK         0.0900 
     70 H70       -81.2597   24.3774  -69.5673 H         1 UNK         0.2959 
     71 H71       -82.2157   26.6837  -70.9626 H         1 UNK         0.1079 
     72 H72       -79.7844   24.9295  -71.5977 H         1 UNK         0.0837 
     73 H73       -79.7959   26.1924  -70.4053 H         1 UNK         0.0837 
     74 H74       -79.9140   28.9239  -71.0576 H         1 UNK         0.0685 
     75 H75       -78.4010   28.0452  -70.9477 H         1 UNK         0.0685 
     76 H76       -80.1760   29.7447  -73.8087 H         1 UNK         0.1434 
     77 H77       -76.7688   32.1391  -74.8261 H         1 UNK         0.1329 
     78 H78       -76.6038   29.4962  -71.4524 H         1 UNK         0.1335 
     79 H79       -75.0973   32.4245  -72.7517 H         1 UNK         0.0680 
     80 H80       -74.7586   30.9607  -71.8619 H         1 UNK         0.0680 
     81 H81       -74.7798   28.6769  -73.3706 H         1 UNK         0.1032 
     82 H82       -73.8162   28.5218  -74.8103 H         1 UNK         0.1032 
     83 H83       -72.6683   29.2150  -72.0729 H         1 UNK         0.0461 
     84 H84       -71.7982   25.3328  -72.5489 H         1 UNK         0.3453 
     85 H85       -70.9506   26.5657  -73.4520 H         1 UNK         0.3453 
     86 H86       -71.4009   28.9778  -74.6866 H         1 UNK         0.2984 
     87 H87       -68.9458   30.5049  -74.1869 H         1 UNK         0.0554 
     88 H88       -67.4876   29.6485  -72.3891 H         1 UNK         0.0847 
     89 H89       -66.7883   29.2452  -73.9465 H         1 UNK         0.0847 
     90 H90       -67.6189   28.0080  -73.0043 H         1 UNK         0.0847 
     91 H91       -69.0272   29.3872  -76.0943 H         1 UNK         0.3141 
     92 H92       -69.5703   27.9138  -77.6080 H         1 UNK         0.0743 
     93 H93       -67.8373   25.4801  -76.8944 H         1 UNK         0.0784 
     94 H94       -68.1336   26.0942  -78.5219 H         1 UNK         0.0784 
     95 H95       -67.2312   27.0608  -77.3668 H         1 UNK         0.0784 
     96 H96       -70.2459   25.1328  -77.3248 H         1 UNK         0.3213 
     97 H97       -72.3845   24.5249  -77.8414 H         1 UNK         0.0855 
     98 H98       -73.3207   25.2875  -75.0245 H         1 UNK         0.0814 
     99 H99       -72.0439   24.1545  -75.4232 H         1 UNK         0.0814 
    100 H100      -73.7078   23.7744  -75.8416 H         1 UNK         0.0814 
    101 H101      -74.7546   26.0235  -76.9516 H         1 UNK         0.3105 
    102 H102      -75.6615   27.1999  -80.0474 H         1 UNK         0.0547 
    103 H103      -77.4995   25.5518  -80.4040 H         1 UNK         0.0837 
    104 H104      -76.6384   24.3614  -79.4290 H         1 UNK         0.0837 
    105 H105      -75.9621   24.9096  -80.9558 H         1 UNK         0.0837 
    106 H106      -77.1939   26.1125  -77.7990 H         1 UNK         0.3020 
    107 H107      -76.8989   28.9799  -75.7825 H         1 UNK         0.1245 
    108 H108      -79.5366   28.8176  -76.0806 H         1 UNK         0.0781 
    109 H109      -79.2010   28.4574  -77.7403 H         1 UNK         0.0781 
    110 H110      -80.3505   31.3004  -75.6143 H         1 UNK         0.0836 
    111 H111      -79.1760   32.5851  -75.7542 H         1 UNK         0.0836 
    112 H112      -78.6294   26.7662  -75.5583 H         1 UNK         0.3022 
    113 H113      -76.4353   24.2144  -74.9547 H         1 UNK         0.0747 
    114 H114      -77.1811   23.9294  -72.5734 H         1 UNK         0.0793 
    115 H115      -75.8406   25.0466  -72.7585 H         1 UNK         0.0793 
    116 H116      -77.4452   25.6715  -72.4676 H         1 UNK         0.0793 
    117 H117      -79.1472   24.4601  -74.1031 H         1 UNK         0.3047 
    118 H118      -80.7903   24.3408  -76.9255 H         1 UNK         0.0822 
    119 H119      -81.2135   21.9236  -77.3875 H         1 UNK         0.0807 
    120 H120      -79.7108   21.4880  -76.5756 H         1 UNK         0.0807 
    121 H121      -79.6772   22.4121  -78.0714 H         1 UNK         0.0807 
    122 H122      -80.5108   23.1484  -74.2537 H         1 UNK         0.2946 
    123 H123      -84.0578   23.3540  -73.7208 H         1 UNK         0.1144 
    124 H124      -81.9451   21.1762  -73.2646 H         1 UNK         0.0793 
    125 H125      -83.4307   20.9770  -74.1828 H         1 UNK         0.0793 
    126 H126      -83.5093   21.2995  -72.4596 H         1 UNK         0.0793 
    127 H127      -81.9149   23.2393  -71.8515 H         1 UNK         0.2896 
@<TRIPOS>BOND
     1    1    2 1    
     2    1   67 1    
     3    1   68 1    
     4    1   69 1    
     5    2    3 2    
     6    2    4 am   BACKBONE|DICT|INTERRES
     7    4    5 1    
     8    4   70 1    
     9    5    6 1    
    10    5   65 1    
    11    5   71 1    
    12    6    7 1    
    13    6   72 1    
    14    6   73 1    
    15    7    8 1    
    16    8    9 1    
    17    8   74 1    
    18    8   75 1    
    19    9   10 ar   
    20    9   14 ar   
    21   10   11 ar   
    22   10   76 1    
    23   11   12 ar   
    24   11   48 1    
    25   12   13 ar   
    26   12   77 1    
    27   13   14 ar   
    28   13   15 1    
    29   14   78 1    
    30   15   16 1    
    31   15   79 1    
    32   15   80 1    
    33   16   17 1    
    34   17   18 1    
    35   17   81 1    
    36   17   82 1    
    37   18   19 1    
    38   18   22 1    
    39   18   83 1    
    40   19   20 am   BACKBONE|DICT|INTERRES
    41   19   21 2    
    42   20   84 1    
    43   20   85 1    
    44   22   23 am   BACKBONE|DICT|INTERRES
    45   22   86 1    
    46   23   24 2    
    47   23   25 1    
    48   25   26 1    
    49   25   27 1    
    50   25   87 1    
    51   26   88 1    
    52   26   89 1    
    53   26   90 1    
    54   27   28 am   BACKBONE|DICT|INTERRES
    55   27   91 1    
    56   28   29 2    
    57   28   30 1    
    58   30   31 1    
    59   30   32 1    
    60   30   92 1    
    61   31   93 1    
    62   31   94 1    
    63   31   95 1    
    64   32   33 am   BACKBONE|DICT|INTERRES
    65   32   96 1    
    66   33   34 2    
    67   33   35 1    
    68   35   36 1    
    69   35   37 1    
    70   35   97 1    
    71   36   98 1    
    72   36   99 1    
    73   36  100 1    
    74   37   38 am   BACKBONE|DICT|INTERRES
    75   37  101 1    
    76   38   39 2    
    77   38   40 1    
    78   40   41 1    
    79   40   42 1    
    80   40  102 1    
    81   41  103 1    
    82   41  104 1    
    83   41  105 1    
    84   42   43 am   BACKBONE|DICT|INTERRES
    85   42  106 1    
    86   43   44 2    
    87   43   45 1    
    88   45   46 1    
    89   45   49 1    
    90   45  107 1    
    91   46   47 1    
    92   46  108 1    
    93   46  109 1    
    94   47   48 1    
    95   48  110 1    
    96   48  111 1    
    97   49   50 am   BACKBONE|DICT|INTERRES
    98   49  112 1    
    99   50   51 2    
   100   50   52 1    
   101   52   53 1    
   102   52   54 1    
   103   52  113 1    
   104   53  114 1    
   105   53  115 1    
   106   53  116 1    
   107   54   55 am   BACKBONE|DICT|INTERRES
   108   54  117 1    
   109   55   56 2    
   110   55   57 1    
   111   57   58 1    
   112   57   59 1    
   113   57  118 1    
   114   58  119 1    
   115   58  120 1    
   116   58  121 1    
   117   59   60 am   BACKBONE|DICT|INTERRES
   118   59  122 1    
   119   60   61 2    
   120   60   62 1    
   121   62   63 1    
   122   62   64 1    
   123   62  123 1    
   124   63  124 1    
   125   63  125 1    
   126   63  126 1    
   127   64   65 am   BACKBONE|DICT|INTERRES
   128   64  127 1    
   129   65   66 2    
@<TRIPOS>SUBSTRUCTURE
     1 UNK         1 GROUP             0       ****    0 ROOT    
