@<TRIPOS>MOLECULE
3R135
127   129    1
SMALL
USER_CHARGES


@<TRIPOS>ATOM
      1 CA        -82.0585   31.7571  -74.3697 C.3       0 UNK        -0.1998 
      2 C         -81.0913   30.5827  -74.3703 C.2       0 UNK         0.4909 
      3 O         -80.0769   30.6270  -75.0661 O.2       0 UNK        -0.5240 
      4 N         -81.3991   29.5351  -73.5935 N.am      1 UNK        -0.4739 
      5 CA        -80.5872   28.3158  -73.4557 C.3       1 UNK         0.0864 
      6 C6        -81.0306   27.4571  -72.2414 C.3       11 UNK        -0.0881 
      7 S7        -81.1053   28.4207  -70.6887 S.3       11 UNK        -0.2682 
      8 C8        -79.8191   27.6364  -69.6584 C.3       11 UNK         0.0289 
      9 C9        -78.4176   27.6800  -70.2614 C.ar      11 UNK        -0.0687 
     10 C10       -77.5923   26.5561  -70.1568 C.ar      11 UNK        -0.0823 
     11 C11       -76.3064   26.5567  -70.7093 C.ar      11 UNK        -0.0830 
     12 C12       -75.8395   27.7096  -71.3450 C.ar      11 UNK        -0.1021 
     13 C13       -76.6447   28.8467  -71.4443 C.ar      11 UNK        -0.0753 
     14 C14       -77.9300   28.8288  -70.8955 C.ar      11 UNK        -0.0933 
     15 C15       -76.1164   30.0965  -72.1303 C.3       11 UNK         0.0166 
     16 S16       -75.8481   29.8228  -73.9096 S.3       11 UNK        -0.2615 
     17 C17       -75.3820   31.5071  -74.4459 C.3       11 UNK        -0.0865 
     18 CA        -73.8539   31.7319  -74.6078 C.3       10 UNK         0.0862 
     19 C         -73.1153   31.8870  -73.2437 C.2       10 UNK         0.5551 
     20 N         -72.0409   31.1557  -72.9683 N.am      10 UNK        -0.7319 
     21 O         -73.5207   32.7028  -72.4196 O.2       10 UNK        -0.5018 
     22 N         -73.2621   30.7468  -75.5231 N.am      10 UNK        -0.4509 
     23 C         -72.1641   30.9396  -76.2623 C.2       10 UNK         0.4899 
     24 O         -71.5660   32.0141  -76.3377 O.2       10 UNK        -0.4839 
     25 CA        -71.6498   29.7058  -77.0273 C.3       9 UNK         0.0222 
     26 CB        -70.2394   29.9068  -77.6217 C.3       9 UNK        -0.1966 
     27 N         -71.7077   28.4773  -76.2231 N.am      9 UNK        -0.4218 
     28 C         -71.0760   28.2335  -75.0612 C.2       9 UNK         0.5020 
     29 O         -70.3742   29.0657  -74.4847 O.2       9 UNK        -0.5274 
     30 CA        -71.2722   26.8540  -74.3947 C.3       8 UNK         0.0270 
     31 CB        -72.0373   27.0148  -73.0702 C.3       8 UNK        -0.1976 
     32 N         -71.9769   25.8779  -75.2305 N.am      8 UNK        -0.4313 
     33 C         -71.4914   25.3195  -76.3511 C.2       8 UNK         0.5041 
     34 O         -70.3246   25.4495  -76.7224 O.2       8 UNK        -0.5577 
     35 CA        -72.4747   24.5271  -77.2404 C.3       7 UNK         0.0284 
     36 CB        -72.2498   23.0160  -77.0737 C.3       7 UNK        -0.1958 
     37 N         -73.8885   24.8321  -76.9907 N.am      7 UNK        -0.4454 
     38 C         -74.4550   26.0466  -77.0819 C.2       7 UNK         0.5089 
     39 O         -73.8710   27.0327  -77.5322 O.2       7 UNK        -0.5125 
     40 CA        -75.8718   26.2203  -76.5002 C.3       6 UNK         0.0408 
     41 CB        -76.8963   26.3929  -77.6313 C.3       6 UNK        -0.1791 
     42 N         -76.2980   25.1361  -75.6047 N.am      6 UNK        -0.4762 
     43 C         -75.6845   24.7844  -74.4599 C.2       6 UNK         0.5007 
     44 O         -74.6827   25.3595  -74.0330 O.2       6 UNK        -0.5032 
     45 CA        -76.2265   23.5527  -73.6959 C.3       5 UNK         0.0783 
     46 C46       -77.0973   23.9838  -72.4843 C.3       11 UNK        -0.0857 
     47 S47       -76.2550   23.7378  -70.8853 S.3       11 UNK        -0.2512 
     48 C48       -75.4002   25.3310  -70.6262 C.3       11 UNK         0.0225 
     49 N         -76.9510   22.6082  -74.5515 N.am      5 UNK        -0.4615 
     50 C         -76.4692   21.9674  -75.6254 C.2       4 UNK         0.5053 
     51 O         -75.2951   22.0317  -75.9896 O.2       4 UNK        -0.5105 
     52 CA        -77.4884   21.1688  -76.4666 C.3       4 UNK         0.0263 
     53 CB        -77.4015   19.6710  -76.1317 C.3       4 UNK        -0.1981 
     54 N         -78.8827   21.6214  -76.3174 N.am      4 UNK        -0.4224 
     55 C         -79.3124   22.8680  -76.5670 C.2       3 UNK         0.4895 
     56 O         -78.5737   23.7604  -76.9924 O.2       3 UNK        -0.5091 
     57 CA        -80.7763   23.1936  -76.2303 C.3       3 UNK         0.0250 
     58 CB        -81.1505   22.7813  -74.7906 C.3       3 UNK        -0.1996 
     59 N         -80.9488   24.6337  -76.3869 N.am      3 UNK        -0.4254 
     60 C         -82.0822   25.3039  -76.5948 C.2       2 UNK         0.5004 
     61 O         -83.1963   24.7775  -76.6374 O.2       2 UNK        -0.5226 
     62 CA        -81.9290   26.8277  -76.7676 C.3       2 UNK         0.0269 
     63 CB        -83.1493   27.4637  -77.4599 C.3       2 UNK        -0.1926 
     64 N         -81.7062   27.5105  -75.4908 N.am      2 UNK        -0.4687 
     65 C         -80.5888   27.4685  -74.7466 C.2       1 UNK         0.5165 
     66 O         -79.5878   26.8176  -75.0489 O.2       1 UNK        -0.5079 
     67 H67       -82.9074   31.5866  -73.7075 H         1 UNK         0.0900 
     68 H68       -81.5487   32.6623  -74.0406 H         1 UNK         0.0900 
     69 H69       -82.4415   31.9281  -75.3754 H         1 UNK         0.0900 
     70 H70       -82.2285   29.5695  -73.0172 H         1 UNK         0.2959 
     71 H71       -79.5528   28.6272  -73.2905 H         1 UNK         0.1079 
     72 H72       -82.0208   27.0303  -72.4139 H         1 UNK         0.0837 
     73 H73       -80.3555   26.6086  -72.1108 H         1 UNK         0.0837 
     74 H74       -79.7950   28.1382  -68.6904 H         1 UNK         0.0685 
     75 H75       -80.1212   26.6060  -69.4641 H         1 UNK         0.0685 
     76 H76       -77.9566   25.6712  -69.6532 H         1 UNK         0.1434 
     77 H77       -74.8470   27.7249  -71.7729 H         1 UNK         0.1329 
     78 H78       -78.5547   29.7086  -70.9659 H         1 UNK         0.1335 
     79 H79       -76.8090   30.9289  -71.9949 H         1 UNK         0.0680 
     80 H80       -75.1774   30.3915  -71.6604 H         1 UNK         0.0680 
     81 H81       -75.8673   31.6820  -75.4073 H         1 UNK         0.1032 
     82 H82       -75.8169   32.2496  -73.7740 H         1 UNK         0.1032 
     83 H83       -73.7460   32.7083  -75.0840 H         1 UNK         0.0461 
     84 H84       -71.6556   30.5077  -73.6439 H         1 UNK         0.3453 
     85 H85       -71.5801   31.2824  -72.0817 H         1 UNK         0.3453 
     86 H86       -73.6837   29.8295  -75.5048 H         1 UNK         0.2984 
     87 H87       -72.3387   29.5552  -77.8597 H         1 UNK         0.0554 
     88 H88       -69.9108   29.0239  -78.1700 H         1 UNK         0.0847 
     89 H89       -69.4992   30.1160  -76.8487 H         1 UNK         0.0847 
     90 H90       -70.2250   30.7446  -78.3198 H         1 UNK         0.0847 
     91 H91       -72.3181   27.7568  -76.5996 H         1 UNK         0.3141 
     92 H92       -70.2799   26.4557  -74.1742 H         1 UNK         0.0743 
     93 H93       -73.0261   27.4449  -73.2333 H         1 UNK         0.0784 
     94 H94       -72.1665   26.0579  -72.5640 H         1 UNK         0.0784 
     95 H95       -71.5044   27.6749  -72.3844 H         1 UNK         0.0784 
     96 H96       -72.9409   25.6860  -74.9698 H         1 UNK         0.3213 
     97 H97       -72.2603   24.7963  -78.2767 H         1 UNK         0.0855 
     98 H98       -72.4685   22.6866  -76.0570 H         1 UNK         0.0814 
     99 H99       -71.2146   22.7477  -77.2891 H         1 UNK         0.0814 
    100 H100      -72.8806   22.4426  -77.7533 H         1 UNK         0.0814 
    101 H101      -74.4488   24.0769  -76.6135 H         1 UNK         0.3105 
    102 H102      -75.8642   27.1387  -75.9093 H         1 UNK         0.0547 
    103 H103      -77.8946   26.5833  -77.2374 H         1 UNK         0.0837 
    104 H104      -76.6350   27.2379  -78.2696 H         1 UNK         0.0837 
    105 H105      -76.9479   25.5079  -78.2666 H         1 UNK         0.0837 
    106 H106      -77.1043   24.6006  -75.9133 H         1 UNK         0.3020 
    107 H107      -75.3468   23.0128  -73.3381 H         1 UNK         0.1245 
    108 H108      -78.0068   23.3836  -72.4285 H         1 UNK         0.0781 
    109 H109      -77.4604   25.0095  -72.5752 H         1 UNK         0.0781 
    110 H110      -74.5906   25.4053  -71.3537 H         1 UNK         0.0836 
    111 H111      -74.9262   25.3161  -69.6442 H         1 UNK         0.0836 
    112 H112      -77.9283   22.4810  -74.3386 H         1 UNK         0.3022 
    113 H113      -77.2117   21.3028  -77.5147 H         1 UNK         0.0747 
    114 H114      -78.0415   19.0792  -76.7866 H         1 UNK         0.0793 
    115 H115      -76.3828   19.3011  -76.2587 H         1 UNK         0.0793 
    116 H116      -77.6950   19.4696  -75.1005 H         1 UNK         0.0793 
    117 H117      -79.5439   20.9378  -75.9765 H         1 UNK         0.3047 
    118 H118      -81.4152   22.6733  -76.9471 H         1 UNK         0.0822 
    119 H119      -80.4982   23.2543  -74.0546 H         1 UNK         0.0807 
    120 H120      -81.0839   21.7020  -74.6483 H         1 UNK         0.0807 
    121 H121      -82.1759   23.0655  -74.5522 H         1 UNK         0.0807 
    122 H122      -80.0781   25.1564  -76.3497 H         1 UNK         0.2946 
    123 H123      -81.0587   27.0007  -77.4055 H         1 UNK         0.1144 
    124 H124      -83.3455   26.9858  -78.4207 H         1 UNK         0.0793 
    125 H125      -84.0537   27.3678  -76.8575 H         1 UNK         0.0793 
    126 H126      -82.9866   28.5242  -77.6548 H         1 UNK         0.0793 
    127 H127      -82.4724   28.0702  -75.1456 H         1 UNK         0.2896 
@<TRIPOS>BOND
     1    1    2 1    
     2    1   67 1    
     3    1   68 1    
     4    1   69 1    
     5    2    3 2    
     6    2    4 am   BACKBONE|DICT|INTERRES
     7    4    5 1    
     8    4   70 1    
     9    5    6 1    
    10    5   65 1    
    11    5   71 1    
    12    6    7 1    
    13    6   72 1    
    14    6   73 1    
    15    7    8 1    
    16    8    9 1    
    17    8   74 1    
    18    8   75 1    
    19    9   10 ar   
    20    9   14 ar   
    21   10   11 ar   
    22   10   76 1    
    23   11   12 ar   
    24   11   48 1    
    25   12   13 ar   
    26   12   77 1    
    27   13   14 ar   
    28   13   15 1    
    29   14   78 1    
    30   15   16 1    
    31   15   79 1    
    32   15   80 1    
    33   16   17 1    
    34   17   18 1    
    35   17   81 1    
    36   17   82 1    
    37   18   19 1    
    38   18   22 1    
    39   18   83 1    
    40   19   20 am   BACKBONE|DICT|INTERRES
    41   19   21 2    
    42   20   84 1    
    43   20   85 1    
    44   22   23 am   BACKBONE|DICT|INTERRES
    45   22   86 1    
    46   23   24 2    
    47   23   25 1    
    48   25   26 1    
    49   25   27 1    
    50   25   87 1    
    51   26   88 1    
    52   26   89 1    
    53   26   90 1    
    54   27   28 am   BACKBONE|DICT|INTERRES
    55   27   91 1    
    56   28   29 2    
    57   28   30 1    
    58   30   31 1    
    59   30   32 1    
    60   30   92 1    
    61   31   93 1    
    62   31   94 1    
    63   31   95 1    
    64   32   33 am   BACKBONE|DICT|INTERRES
    65   32   96 1    
    66   33   34 2    
    67   33   35 1    
    68   35   36 1    
    69   35   37 1    
    70   35   97 1    
    71   36   98 1    
    72   36   99 1    
    73   36  100 1    
    74   37   38 am   BACKBONE|DICT|INTERRES
    75   37  101 1    
    76   38   39 2    
    77   38   40 1    
    78   40   41 1    
    79   40   42 1    
    80   40  102 1    
    81   41  103 1    
    82   41  104 1    
    83   41  105 1    
    84   42   43 am   BACKBONE|DICT|INTERRES
    85   42  106 1    
    86   43   44 2    
    87   43   45 1    
    88   45   46 1    
    89   45   49 1    
    90   45  107 1    
    91   46   47 1    
    92   46  108 1    
    93   46  109 1    
    94   47   48 1    
    95   48  110 1    
    96   48  111 1    
    97   49   50 am   BACKBONE|DICT|INTERRES
    98   49  112 1    
    99   50   51 2    
   100   50   52 1    
   101   52   53 1    
   102   52   54 1    
   103   52  113 1    
   104   53  114 1    
   105   53  115 1    
   106   53  116 1    
   107   54   55 am   BACKBONE|DICT|INTERRES
   108   54  117 1    
   109   55   56 2    
   110   55   57 1    
   111   57   58 1    
   112   57   59 1    
   113   57  118 1    
   114   58  119 1    
   115   58  120 1    
   116   58  121 1    
   117   59   60 am   BACKBONE|DICT|INTERRES
   118   59  122 1    
   119   60   61 2    
   120   60   62 1    
   121   62   63 1    
   122   62   64 1    
   123   62  123 1    
   124   63  124 1    
   125   63  125 1    
   126   63  126 1    
   127   64   65 am   BACKBONE|DICT|INTERRES
   128   64  127 1    
   129   65   66 2    
@<TRIPOS>SUBSTRUCTURE
     1 UNK         1 GROUP             0       ****    0 ROOT    
