@<TRIPOS>MOLECULE
3R135
127   129    1
SMALL
USER_CHARGES


@<TRIPOS>ATOM
      1 CA        -83.6123   28.5825  -71.7062 C.3       0 UNK        -0.1998 
      2 C         -82.5894   28.1713  -72.7537 C.2       0 UNK         0.4909 
      3 O         -81.7904   27.2707  -72.4986 O.2       0 UNK        -0.5240 
      4 N         -82.6167   28.8240  -73.9249 N.am      1 UNK        -0.4739 
      5 CA        -81.7380   28.6561  -75.0966 C.3       1 UNK         0.0864 
      6 C6        -80.2368   28.9181  -74.8127 C.3       11 UNK        -0.0881 
      7 S7        -79.8616   30.6381  -74.3371 S.3       11 UNK        -0.2682 
      8 C8        -79.6068   30.5224  -72.5357 C.3       11 UNK         0.0289 
      9 C9        -78.5194   29.5318  -72.1335 C.ar      11 UNK        -0.0687 
     10 C10       -78.8445   28.4329  -71.3330 C.ar      11 UNK        -0.0823 
     11 C11       -77.8614   27.5328  -70.9133 C.ar      11 UNK        -0.0830 
     12 C12       -76.5349   27.7422  -71.3077 C.ar      11 UNK        -0.1021 
     13 C13       -76.1949   28.8311  -72.1171 C.ar      11 UNK        -0.0753 
     14 C14       -77.1906   29.7254  -72.5245 C.ar      11 UNK        -0.0933 
     15 C15       -74.7491   29.0435  -72.5378 C.3       11 UNK         0.0166 
     16 S16       -73.9319   30.2565  -71.4548 S.3       11 UNK        -0.2615 
     17 C17       -72.1645   29.9065  -71.7508 C.3       11 UNK        -0.0865 
     18 CA        -71.4993   30.9040  -72.7352 C.3       10 UNK         0.0862 
     19 C         -69.9475   30.7632  -72.6958 C.2       10 UNK         0.5551 
     20 N         -69.2822   30.3701  -73.7756 N.am      10 UNK        -0.7319 
     21 O         -69.3362   31.0212  -71.6618 O.2       10 UNK        -0.5018 
     22 N         -72.0910   30.7970  -74.0776 N.am      10 UNK        -0.4509 
     23 C         -71.9910   31.7003  -75.0574 C.2       10 UNK         0.4899 
     24 O         -71.4218   32.7857  -74.9329 O.2       10 UNK        -0.4839 
     25 CA        -72.6123   31.2956  -76.4111 C.3       9 UNK         0.0222 
     26 CB        -72.5216   32.4176  -77.4627 C.3       9 UNK        -0.1966 
     27 N         -72.0048   30.0763  -76.9608 N.am      9 UNK        -0.4218 
     28 C         -72.2347   28.8323  -76.5226 C.2       9 UNK         0.5020 
     29 O         -72.9904   28.5680  -75.5798 O.2       9 UNK        -0.5274 
     30 CA        -71.4744   27.6971  -77.2207 C.3       8 UNK         0.0270 
     31 CB        -70.0119   27.6284  -76.7480 C.3       8 UNK        -0.1976 
     32 N         -72.1621   26.4667  -76.8625 N.am      8 UNK        -0.4313 
     33 C         -72.3836   25.4002  -77.6351 C.2       8 UNK         0.5041 
     34 O         -71.8547   25.2201  -78.7328 O.2       8 UNK        -0.5577 
     35 CA        -73.3987   24.3740  -77.0929 C.3       7 UNK         0.0284 
     36 CB        -72.6784   23.1942  -76.4214 C.3       7 UNK        -0.1958 
     37 N         -74.3405   24.9701  -76.1380 N.am      7 UNK        -0.4454 
     38 C         -75.2960   25.8537  -76.4563 C.2       7 UNK         0.5089 
     39 O         -75.5666   26.1829  -77.6125 O.2       7 UNK        -0.5125 
     40 CA        -76.0525   26.4795  -75.2729 C.3       6 UNK         0.0408 
     41 CB        -77.0677   27.5444  -75.7127 C.3       6 UNK        -0.1791 
     42 N         -76.7412   25.4638  -74.4803 N.am      6 UNK        -0.4762 
     43 C         -76.1739   24.7096  -73.5298 C.2       6 UNK         0.5007 
     44 O         -74.9797   24.7764  -73.2328 O.2       6 UNK        -0.5032 
     45 CA        -77.0780   23.6696  -72.8486 C.3       5 UNK         0.0783 
     46 C46       -78.1328   24.3217  -71.9202 C.3       11 UNK        -0.0857 
     47 S47       -77.4048   24.8069  -70.3210 S.3       11 UNK        -0.2512 
     48 C48       -78.2522   26.3859  -69.9829 C.3       11 UNK         0.0225 
     49 N         -77.7015   22.8346  -73.8745 N.am      5 UNK        -0.4615 
     50 C         -77.2272   21.6491  -74.2822 C.2       4 UNK         0.5053 
     51 O         -76.2556   21.0884  -73.7749 O.2       4 UNK        -0.5105 
     52 CA        -77.9544   20.9625  -75.4539 C.3       4 UNK         0.0263 
     53 CB        -79.0008   19.9675  -74.9265 C.3       4 UNK        -0.1981 
     54 N         -78.6059   21.9120  -76.3578 N.am      4 UNK        -0.4224 
     55 C         -77.9575   22.7658  -77.1629 C.2       3 UNK         0.4895 
     56 O         -76.7383   22.7540  -77.3280 O.2       3 UNK        -0.5091 
     57 CA        -78.8058   23.8256  -77.8917 C.3       3 UNK         0.0250 
     58 CB        -79.0074   23.4320  -79.3639 C.3       3 UNK        -0.1996 
     59 N         -80.1160   24.0893  -77.2787 N.am      3 UNK        -0.4254 
     60 C         -80.3013   24.6001  -76.0539 C.2       2 UNK         0.5004 
     61 O         -79.3826   24.8459  -75.2680 O.2       2 UNK        -0.5226 
     62 CA        -81.7507   24.8391  -75.6070 C.3       2 UNK         0.0269 
     63 CB        -82.1497   23.8316  -74.5167 C.3       2 UNK        -0.1926 
     64 N         -81.8796   26.1942  -75.0777 N.am      2 UNK        -0.4687 
     65 C         -81.8962   27.3036  -75.8241 C.2       1 UNK         0.5165 
     66 O         -82.0016   27.2891  -77.0516 O.2       1 UNK        -0.5079 
     67 H67       -83.1059   28.9183  -70.8016 H         1 UNK         0.0900 
     68 H68       -84.2539   29.3910  -72.0557 H         1 UNK         0.0900 
     69 H69       -84.2450   27.7339  -71.4476 H         1 UNK         0.0900 
     70 H70       -83.3267   29.5325  -74.0499 H         1 UNK         0.2959 
     71 H71       -82.0678   29.4124  -75.8113 H         1 UNK         0.1079 
     72 H72       -79.6571   28.7325  -75.7183 H         1 UNK         0.0837 
     73 H73       -79.8535   28.2187  -74.0690 H         1 UNK         0.0837 
     74 H74       -79.3372   31.5100  -72.1592 H         1 UNK         0.0685 
     75 H75       -80.5572   30.2694  -72.0645 H         1 UNK         0.0685 
     76 H76       -79.8689   28.2867  -71.0192 H         1 UNK         0.1434 
     77 H77       -75.7617   27.0618  -70.9786 H         1 UNK         0.1329 
     78 H78       -76.9308   30.5759  -73.1398 H         1 UNK         0.1335 
     79 H79       -74.7095   29.3927  -73.5705 H         1 UNK         0.0680 
     80 H80       -74.2121   28.0940  -72.5108 H         1 UNK         0.0680 
     81 H81       -72.0346   28.8797  -72.0972 H         1 UNK         0.1032 
     82 H82       -71.6741   29.9517  -70.7762 H         1 UNK         0.1032 
     83 H83       -71.7093   31.9125  -72.3738 H         1 UNK         0.0461 
     84 H84       -68.2785   30.2878  -73.7346 H         1 UNK         0.3453 
     85 H85       -69.7729   30.1742  -74.6315 H         1 UNK         0.3453 
     86 H86       -72.5422   29.9161  -74.3066 H         1 UNK         0.2984 
     87 H87       -73.6718   31.1012  -76.2299 H         1 UNK         0.0554 
     88 H88       -72.9986   33.3302  -77.1024 H         1 UNK         0.0847 
     89 H89       -73.0252   32.1370  -78.3880 H         1 UNK         0.0847 
     90 H90       -71.4870   32.6646  -77.7043 H         1 UNK         0.0847 
     91 H91       -71.3463   30.2071  -77.7159 H         1 UNK         0.3141 
     92 H92       -71.5189   27.8504  -78.3011 H         1 UNK         0.0743 
     93 H93       -69.9425   27.5113  -75.6655 H         1 UNK         0.0784 
     94 H94       -69.4890   26.7893  -77.2075 H         1 UNK         0.0784 
     95 H95       -69.4669   28.5340  -77.0164 H         1 UNK         0.0784 
     96 H96       -72.6992   26.5566  -76.0079 H         1 UNK         0.3213 
     97 H97       -73.9717   23.9924  -77.9410 H         1 UNK         0.0855 
     98 H98       -72.0988   23.5139  -75.5545 H         1 UNK         0.0814 
     99 H99       -71.9889   22.7129  -77.1164 H         1 UNK         0.0814 
    100 H100      -73.3879   22.4347  -76.0915 H         1 UNK         0.0814 
    101 H101      -74.2256   24.7399  -75.1563 H         1 UNK         0.3105 
    102 H102      -75.3110   26.9788  -74.6460 H         1 UNK         0.0547 
    103 H103      -77.8637   27.1158  -76.3228 H         1 UNK         0.0837 
    104 H104      -76.5858   28.3290  -76.2974 H         1 UNK         0.0837 
    105 H105      -77.5201   28.0225  -74.8456 H         1 UNK         0.0837 
    106 H106      -77.7203   25.3031  -74.7130 H         1 UNK         0.3020 
    107 H107      -76.4329   23.0405  -72.2301 H         1 UNK         0.1245 
    108 H108      -78.9283   23.6078  -71.7008 H         1 UNK         0.0781 
    109 H109      -78.6224   25.1730  -72.3985 H         1 UNK         0.0781 
    110 H110      -78.0261   26.6859  -68.9591 H         1 UNK         0.0836 
    111 H111      -79.3290   26.2111  -70.0201 H         1 UNK         0.0836 
    112 H112      -78.4675   23.2609  -74.3836 H         1 UNK         0.3022 
    113 H113      -77.2081   20.4063  -76.0254 H         1 UNK         0.0747 
    114 H114      -79.4755   19.4207  -75.7414 H         1 UNK         0.0793 
    115 H115      -78.5393   19.2292  -74.2691 H         1 UNK         0.0793 
    116 H116      -79.7838   20.4679  -74.3550 H         1 UNK         0.0793 
    117 H117      -79.6118   21.9744  -76.3084 H         1 UNK         0.3047 
    118 H118      -78.2370   24.7580  -77.8624 H         1 UNK         0.0822 
    119 H119      -79.5172   24.2193  -79.9198 H         1 UNK         0.0807 
    120 H120      -79.5923   22.5165  -79.4613 H         1 UNK         0.0807 
    121 H121      -78.0492   23.2606  -79.8567 H         1 UNK         0.0807 
    122 H122      -80.9239   23.9077  -77.8576 H         1 UNK         0.2946 
    123 H123      -82.4243   24.7241  -76.4593 H         1 UNK         0.1144 
    124 H124      -82.0758   22.8068  -74.8828 H         1 UNK         0.0793 
    125 H125      -83.1792   23.9866  -74.1933 H         1 UNK         0.0793 
    126 H126      -81.5086   23.9128  -73.6374 H         1 UNK         0.0793 
    127 H127      -81.7589   26.3173  -74.0743 H         1 UNK         0.2896 
@<TRIPOS>BOND
     1    1    2 1    
     2    1   67 1    
     3    1   68 1    
     4    1   69 1    
     5    2    3 2    
     6    2    4 am   BACKBONE|DICT|INTERRES
     7    4    5 1    
     8    4   70 1    
     9    5    6 1    
    10    5   65 1    
    11    5   71 1    
    12    6    7 1    
    13    6   72 1    
    14    6   73 1    
    15    7    8 1    
    16    8    9 1    
    17    8   74 1    
    18    8   75 1    
    19    9   10 ar   
    20    9   14 ar   
    21   10   11 ar   
    22   10   76 1    
    23   11   12 ar   
    24   11   48 1    
    25   12   13 ar   
    26   12   77 1    
    27   13   14 ar   
    28   13   15 1    
    29   14   78 1    
    30   15   16 1    
    31   15   79 1    
    32   15   80 1    
    33   16   17 1    
    34   17   18 1    
    35   17   81 1    
    36   17   82 1    
    37   18   19 1    
    38   18   22 1    
    39   18   83 1    
    40   19   20 am   BACKBONE|DICT|INTERRES
    41   19   21 2    
    42   20   84 1    
    43   20   85 1    
    44   22   23 am   BACKBONE|DICT|INTERRES
    45   22   86 1    
    46   23   24 2    
    47   23   25 1    
    48   25   26 1    
    49   25   27 1    
    50   25   87 1    
    51   26   88 1    
    52   26   89 1    
    53   26   90 1    
    54   27   28 am   BACKBONE|DICT|INTERRES
    55   27   91 1    
    56   28   29 2    
    57   28   30 1    
    58   30   31 1    
    59   30   32 1    
    60   30   92 1    
    61   31   93 1    
    62   31   94 1    
    63   31   95 1    
    64   32   33 am   BACKBONE|DICT|INTERRES
    65   32   96 1    
    66   33   34 2    
    67   33   35 1    
    68   35   36 1    
    69   35   37 1    
    70   35   97 1    
    71   36   98 1    
    72   36   99 1    
    73   36  100 1    
    74   37   38 am   BACKBONE|DICT|INTERRES
    75   37  101 1    
    76   38   39 2    
    77   38   40 1    
    78   40   41 1    
    79   40   42 1    
    80   40  102 1    
    81   41  103 1    
    82   41  104 1    
    83   41  105 1    
    84   42   43 am   BACKBONE|DICT|INTERRES
    85   42  106 1    
    86   43   44 2    
    87   43   45 1    
    88   45   46 1    
    89   45   49 1    
    90   45  107 1    
    91   46   47 1    
    92   46  108 1    
    93   46  109 1    
    94   47   48 1    
    95   48  110 1    
    96   48  111 1    
    97   49   50 am   BACKBONE|DICT|INTERRES
    98   49  112 1    
    99   50   51 2    
   100   50   52 1    
   101   52   53 1    
   102   52   54 1    
   103   52  113 1    
   104   53  114 1    
   105   53  115 1    
   106   53  116 1    
   107   54   55 am   BACKBONE|DICT|INTERRES
   108   54  117 1    
   109   55   56 2    
   110   55   57 1    
   111   57   58 1    
   112   57   59 1    
   113   57  118 1    
   114   58  119 1    
   115   58  120 1    
   116   58  121 1    
   117   59   60 am   BACKBONE|DICT|INTERRES
   118   59  122 1    
   119   60   61 2    
   120   60   62 1    
   121   62   63 1    
   122   62   64 1    
   123   62  123 1    
   124   63  124 1    
   125   63  125 1    
   126   63  126 1    
   127   64   65 am   BACKBONE|DICT|INTERRES
   128   64  127 1    
   129   65   66 2    
@<TRIPOS>SUBSTRUCTURE
     1 UNK         1 GROUP             0       ****    0 ROOT    
