@<TRIPOS>MOLECULE
3R135
127   129    1
SMALL
USER_CHARGES


@<TRIPOS>ATOM
      1 CA        -82.7981   29.7111  -72.4921 C.3       0 UNK        -0.1998 
      2 C         -82.1463   29.6012  -73.8623 C.2       0 UNK         0.4909 
      3 O         -82.7963   29.8683  -74.8734 O.2       0 UNK        -0.5240 
      4 N         -80.8655   29.2115  -73.9014 N.am      1 UNK        -0.4739 
      5 CA        -80.0807   29.0365  -75.1312 C.3       1 UNK         0.0864 
      6 C6        -78.5607   28.9911  -74.8446 C.3       11 UNK        -0.0881 
      7 S7        -77.9102   30.5752  -74.2010 S.3       11 UNK        -0.2682 
      8 C8        -77.9413   30.3493  -72.3909 C.3       11 UNK         0.0289 
      9 C9        -77.0424   29.2127  -71.9268 C.ar      11 UNK        -0.0687 
     10 C10       -77.5941   27.9788  -71.5705 C.ar      11 UNK        -0.0823 
     11 C11       -76.7738   26.9187  -71.1742 C.ar      11 UNK        -0.0830 
     12 C12       -75.3897   27.1098  -71.1042 C.ar      11 UNK        -0.1021 
     13 C13       -74.8292   28.3489  -71.4295 C.ar      11 UNK        -0.0753 
     14 C14       -75.6595   29.3953  -71.8440 C.ar      11 UNK        -0.0933 
     15 C15       -73.3293   28.5711  -71.3268 C.3       11 UNK         0.0166 
     16 S16       -72.5664   28.5963  -72.9754 S.3       11 UNK        -0.2615 
     17 C17       -71.1066   29.6572  -72.6847 C.3       11 UNK        -0.0865 
     18 CA        -71.4418   31.1719  -72.5692 C.3       10 UNK         0.0862 
     19 C         -70.1504   32.0274  -72.4247 C.2       10 UNK         0.5551 
     20 N         -69.8855   32.9868  -73.3031 N.am      10 UNK        -0.7319 
     21 O         -69.3782   31.8196  -71.4920 O.2       10 UNK        -0.5018 
     22 N         -72.3589   31.6117  -73.6314 N.am      10 UNK        -0.4509 
     23 C         -73.2258   32.6246  -73.5478 C.2       10 UNK         0.4899 
     24 O         -73.3008   33.3829  -72.5811 O.2       10 UNK        -0.4839 
     25 CA        -74.2067   32.8093  -74.7215 C.3       9 UNK         0.0222 
     26 CB        -73.5860   33.6768  -75.8340 C.3       9 UNK        -0.1966 
     27 N         -74.7682   31.5558  -75.2539 N.am      9 UNK        -0.4218 
     28 C         -74.1480   30.5702  -75.9181 C.2       9 UNK         0.5020 
     29 O         -72.9485   30.5726  -76.2120 O.2       9 UNK        -0.5274 
     30 CA        -75.0164   29.3730  -76.3096 C.3       8 UNK         0.0270 
     31 CB        -75.8781   29.6857  -77.5472 C.3       8 UNK        -0.1976 
     32 N         -74.1480   28.2328  -76.5784 N.am      8 UNK        -0.4313 
     33 C         -74.4936   26.9550  -76.4077 C.2       8 UNK         0.5041 
     34 O         -75.6235   26.5879  -76.0696 O.2       8 UNK        -0.5577 
     35 CA        -73.3985   25.9067  -76.6487 C.3       7 UNK         0.0284 
     36 CB        -72.2959   25.9963  -75.5736 C.3       7 UNK        -0.1958 
     37 N         -74.0446   24.6010  -76.6059 N.am      7 UNK        -0.4454 
     38 C         -73.5296   23.4129  -76.9340 C.2       7 UNK         0.5089 
     39 O         -72.3967   23.2648  -77.3956 O.2       7 UNK        -0.5125 
     40 CA        -74.4428   22.1846  -76.7222 C.3       6 UNK         0.0408 
     41 CB        -73.6458   20.9065  -76.3876 C.3       6 UNK        -0.1791 
     42 N         -75.5193   22.4005  -75.7424 N.am      6 UNK        -0.4762 
     43 C         -75.3910   22.6942  -74.4353 C.2       6 UNK         0.5007 
     44 O         -74.3064   22.7873  -73.8598 O.2       6 UNK        -0.5032 
     45 CA        -76.6829   22.9485  -73.6285 C.3       5 UNK         0.0783 
     46 C46       -76.8591   24.4640  -73.3675 C.3       11 UNK        -0.0857 
     47 S47       -78.2489   24.8152  -72.2379 S.3       11 UNK        -0.2512 
     48 C48       -77.3890   25.5708  -70.8190 C.3       11 UNK         0.0225 
     49 N         -77.8643   22.3650  -74.2735 N.am      5 UNK        -0.4615 
     50 C         -78.1384   21.0526  -74.3021 C.2       4 UNK         0.5053 
     51 O         -77.4622   20.2065  -73.7164 O.2       4 UNK        -0.5105 
     52 CA        -79.3541   20.5894  -75.1291 C.3       4 UNK         0.0263 
     53 CB        -80.5528   20.3146  -74.2064 C.3       4 UNK        -0.1981 
     54 N         -79.7663   21.5285  -76.1760 N.am      4 UNK        -0.4224 
     55 C         -79.0160   21.9279  -77.2137 C.2       3 UNK         0.4895 
     56 O         -77.8845   21.5023  -77.4461 O.2       3 UNK        -0.5091 
     57 CA        -79.6054   23.0285  -78.1156 C.3       3 UNK         0.0250 
     58 CB        -80.2569   22.4083  -79.3620 C.3       3 UNK        -0.1996 
     59 N         -80.5751   23.9059  -77.4444 N.am      3 UNK        -0.4254 
     60 C         -80.3083   24.6690  -76.3744 C.2       2 UNK         0.5004 
     61 O         -79.2199   24.6793  -75.7963 O.2       2 UNK        -0.5226 
     62 CA        -81.4768   25.4971  -75.8156 C.3       2 UNK         0.0269 
     63 CB        -82.2239   24.6953  -74.7367 C.3       2 UNK        -0.1926 
     64 N         -81.0275   26.7636  -75.2350 N.am      2 UNK        -0.4687 
     65 C         -80.5180   27.7903  -75.9319 C.2       1 UNK         0.5165 
     66 O         -80.4086   27.7928  -77.1593 O.2       1 UNK        -0.5079 
     67 H67       -82.1063   29.4591  -71.6887 H         1 UNK         0.0900 
     68 H68       -83.1530   30.7280  -72.3266 H         1 UNK         0.0900 
     69 H69       -83.6522   29.0374  -72.4282 H         1 UNK         0.0900 
     70 H70       -80.3805   29.0154  -73.0395 H         1 UNK         0.2959 
     71 H71       -80.2744   29.8984  -75.7744 H         1 UNK         0.1079 
     72 H72       -78.0188   28.7813  -75.7682 H         1 UNK         0.0837 
     73 H73       -78.3112   28.1670  -74.1761 H         1 UNK         0.0837 
     74 H74       -78.9674   30.1926  -72.0579 H         1 UNK         0.0685 
     75 H75       -77.6149   31.2782  -71.9209 H         1 UNK         0.0685 
     76 H76       -78.6634   27.8292  -71.6226 H         1 UNK         0.1434 
     77 H77       -74.7479   26.2965  -70.7939 H         1 UNK         0.1329 
     78 H78       -75.2259   30.3498  -72.1101 H         1 UNK         0.1335 
     79 H79       -72.8568   27.7935  -70.7249 H         1 UNK         0.0680 
     80 H80       -73.1495   29.5131  -70.8088 H         1 UNK         0.0680 
     81 H81       -70.4141   29.4900  -73.5117 H         1 UNK         0.1032 
     82 H82       -70.5919   29.3085  -71.7872 H         1 UNK         0.1032 
     83 H83       -71.9707   31.3089  -71.6250 H         1 UNK         0.0461 
     84 H84       -69.0486   33.5388  -73.1995 H         1 UNK         0.3453 
     85 H85       -70.5185   33.1617  -74.0668 H         1 UNK         0.3453 
     86 H86       -72.3631   31.0590  -74.4842 H         1 UNK         0.2984 
     87 H87       -75.0622   33.3581  -74.3242 H         1 UNK         0.0554 
     88 H88       -73.2754   34.6461  -75.4418 H         1 UNK         0.0847 
     89 H89       -74.3012   33.8661  -76.6343 H         1 UNK         0.0847 
     90 H90       -72.7048   33.2110  -76.2757 H         1 UNK         0.0847 
     91 H91       -75.7486   31.4150  -75.0414 H         1 UNK         0.3141 
     92 H92       -75.6544   29.1326  -75.4574 H         1 UNK         0.0743 
     93 H93       -76.5498   30.5239  -77.3576 H         1 UNK         0.0784 
     94 H94       -76.4981   28.8330  -77.8245 H         1 UNK         0.0784 
     95 H95       -75.2628   29.9461  -78.4093 H         1 UNK         0.0784 
     96 H96       -73.1899   28.4857  -76.7905 H         1 UNK         0.3213 
     97 H97       -72.9723   26.0619  -77.6417 H         1 UNK         0.0855 
     98 H98       -72.7014   25.8383  -74.5732 H         1 UNK         0.0814 
     99 H99       -71.8134   26.9742  -75.5798 H         1 UNK         0.0814 
    100 H100      -71.5128   25.2560  -75.7357 H         1 UNK         0.0814 
    101 H101      -75.0026   24.6535  -76.2764 H         1 UNK         0.3105 
    102 H102      -74.9425   22.0170  -77.6772 H         1 UNK         0.0547 
    103 H103      -74.3071   20.0506  -76.2536 H         1 UNK         0.0837 
    104 H104      -73.0569   21.0225  -75.4774 H         1 UNK         0.0837 
    105 H105      -72.9528   20.6552  -77.1913 H         1 UNK         0.0837 
    106 H106      -76.4577   22.3103  -76.1182 H         1 UNK         0.3020 
    107 H107      -76.5456   22.4547  -72.6635 H         1 UNK         0.1245 
    108 H108      -77.0360   25.0002  -74.3016 H         1 UNK         0.0781 
    109 H109      -75.9432   24.8892  -72.9532 H         1 UNK         0.0781 
    110 H110      -76.6328   24.8778  -70.4470 H         1 UNK         0.0836 
    111 H111      -78.1035   25.7098  -70.0066 H         1 UNK         0.0836 
    112 H112      -78.4653   23.0181  -74.7659 H         1 UNK         0.3022 
    113 H113      -79.0738   19.6545  -75.6188 H         1 UNK         0.0747 
    114 H114      -81.3948   19.8987  -74.7602 H         1 UNK         0.0793 
    115 H115      -80.2912   19.5936  -73.4304 H         1 UNK         0.0793 
    116 H116      -80.8928   21.2224  -73.7061 H         1 UNK         0.0793 
    117 H117      -80.6810   21.9421  -76.0737 H         1 UNK         0.3047 
    118 H118      -78.7717   23.6547  -78.4407 H         1 UNK         0.0822 
    119 H119      -80.5873   23.1759  -80.0621 H         1 UNK         0.0807 
    120 H120      -81.1198   21.7930  -79.1040 H         1 UNK         0.0807 
    121 H121      -79.5501   21.7705  -79.8953 H         1 UNK         0.0807 
    122 H122      -81.5008   23.9398  -77.8476 H         1 UNK         0.2946 
    123 H123      -82.1676   25.7267  -76.6302 H         1 UNK         0.1144 
    124 H124      -83.0738   25.2537  -74.3437 H         1 UNK         0.0793 
    125 H125      -81.5715   24.4426  -73.8992 H         1 UNK         0.0793 
    126 H126      -82.6134   23.7597  -75.1403 H         1 UNK         0.0793 
    127 H127      -81.0589   26.8390  -74.2295 H         1 UNK         0.2896 
@<TRIPOS>BOND
     1    1    2 1    
     2    1   67 1    
     3    1   68 1    
     4    1   69 1    
     5    2    3 2    
     6    2    4 am   BACKBONE|DICT|INTERRES
     7    4    5 1    
     8    4   70 1    
     9    5    6 1    
    10    5   65 1    
    11    5   71 1    
    12    6    7 1    
    13    6   72 1    
    14    6   73 1    
    15    7    8 1    
    16    8    9 1    
    17    8   74 1    
    18    8   75 1    
    19    9   10 ar   
    20    9   14 ar   
    21   10   11 ar   
    22   10   76 1    
    23   11   12 ar   
    24   11   48 1    
    25   12   13 ar   
    26   12   77 1    
    27   13   14 ar   
    28   13   15 1    
    29   14   78 1    
    30   15   16 1    
    31   15   79 1    
    32   15   80 1    
    33   16   17 1    
    34   17   18 1    
    35   17   81 1    
    36   17   82 1    
    37   18   19 1    
    38   18   22 1    
    39   18   83 1    
    40   19   20 am   BACKBONE|DICT|INTERRES
    41   19   21 2    
    42   20   84 1    
    43   20   85 1    
    44   22   23 am   BACKBONE|DICT|INTERRES
    45   22   86 1    
    46   23   24 2    
    47   23   25 1    
    48   25   26 1    
    49   25   27 1    
    50   25   87 1    
    51   26   88 1    
    52   26   89 1    
    53   26   90 1    
    54   27   28 am   BACKBONE|DICT|INTERRES
    55   27   91 1    
    56   28   29 2    
    57   28   30 1    
    58   30   31 1    
    59   30   32 1    
    60   30   92 1    
    61   31   93 1    
    62   31   94 1    
    63   31   95 1    
    64   32   33 am   BACKBONE|DICT|INTERRES
    65   32   96 1    
    66   33   34 2    
    67   33   35 1    
    68   35   36 1    
    69   35   37 1    
    70   35   97 1    
    71   36   98 1    
    72   36   99 1    
    73   36  100 1    
    74   37   38 am   BACKBONE|DICT|INTERRES
    75   37  101 1    
    76   38   39 2    
    77   38   40 1    
    78   40   41 1    
    79   40   42 1    
    80   40  102 1    
    81   41  103 1    
    82   41  104 1    
    83   41  105 1    
    84   42   43 am   BACKBONE|DICT|INTERRES
    85   42  106 1    
    86   43   44 2    
    87   43   45 1    
    88   45   46 1    
    89   45   49 1    
    90   45  107 1    
    91   46   47 1    
    92   46  108 1    
    93   46  109 1    
    94   47   48 1    
    95   48  110 1    
    96   48  111 1    
    97   49   50 am   BACKBONE|DICT|INTERRES
    98   49  112 1    
    99   50   51 2    
   100   50   52 1    
   101   52   53 1    
   102   52   54 1    
   103   52  113 1    
   104   53  114 1    
   105   53  115 1    
   106   53  116 1    
   107   54   55 am   BACKBONE|DICT|INTERRES
   108   54  117 1    
   109   55   56 2    
   110   55   57 1    
   111   57   58 1    
   112   57   59 1    
   113   57  118 1    
   114   58  119 1    
   115   58  120 1    
   116   58  121 1    
   117   59   60 am   BACKBONE|DICT|INTERRES
   118   59  122 1    
   119   60   61 2    
   120   60   62 1    
   121   62   63 1    
   122   62   64 1    
   123   62  123 1    
   124   63  124 1    
   125   63  125 1    
   126   63  126 1    
   127   64   65 am   BACKBONE|DICT|INTERRES
   128   64  127 1    
   129   65   66 2    
@<TRIPOS>SUBSTRUCTURE
     1 UNK         1 GROUP             0       ****    0 ROOT    
