@<TRIPOS>MOLECULE
3R135
127   129    1
SMALL
USER_CHARGES


@<TRIPOS>ATOM
      1 CA        -84.8373   26.2314  -71.4883 C.3       0 UNK        -0.1998 
      2 C         -84.5378   26.7471  -72.8879 C.2       0 UNK         0.4909 
      3 O         -85.0792   26.2248  -73.8630 O.2       0 UNK        -0.5240 
      4 N         -83.6885   27.7756  -72.9930 N.am      1 UNK        -0.4739 
      5 CA        -83.2028   28.3402  -74.2550 C.3       1 UNK         0.0864 
      6 C6        -82.5912   29.7573  -74.0591 C.3       11 UNK        -0.0881 
      7 S7        -81.3955   29.8968  -72.6785 S.3       11 UNK        -0.2682 
      8 C8        -79.8054   29.7188  -73.5512 C.3       11 UNK         0.0289 
      9 C9        -78.7249   29.1330  -72.6508 C.ar      11 UNK        -0.0687 
     10 C10       -78.8963   27.8676  -72.0783 C.ar      11 UNK        -0.0823 
     11 C11       -77.9055   27.3098  -71.2655 C.ar      11 UNK        -0.0830 
     12 C12       -76.7253   28.0226  -71.0371 C.ar      11 UNK        -0.1021 
     13 C13       -76.5348   29.2824  -71.6141 C.ar      11 UNK        -0.0753 
     14 C14       -77.5387   29.8348  -72.4162 C.ar      11 UNK        -0.0933 
     15 C15       -75.2359   30.0371  -71.3828 C.3       11 UNK         0.0166 
     16 S16       -73.9739   29.4819  -72.5625 S.3       11 UNK        -0.2615 
     17 C17       -72.5213   30.4777  -72.0807 C.3       11 UNK        -0.0865 
     18 CA        -72.0870   31.4913  -73.1816 C.3       10 UNK         0.0862 
     19 C         -70.8750   32.3662  -72.7383 C.2       10 UNK         0.5551 
     20 N         -69.9658   32.7368  -73.6317 N.am      10 UNK        -0.7319 
     21 O         -70.7722   32.7443  -71.5736 O.2       10 UNK        -0.5018 
     22 N         -71.9573   30.8819  -74.5205 N.am      10 UNK        -0.4509 
     23 C         -71.1400   29.8773  -74.8615 C.2       10 UNK         0.4899 
     24 O         -70.3088   29.3737  -74.1044 O.2       10 UNK        -0.4839 
     25 CA        -71.2847   29.3749  -76.3066 C.3       9 UNK         0.0222 
     26 CB        -70.1349   29.8702  -77.2069 C.3       9 UNK        -0.1966 
     27 N         -71.4748   27.9211  -76.3703 N.am      9 UNK        -0.4218 
     28 C         -70.5778   26.9328  -76.2117 C.2       9 UNK         0.5020 
     29 O         -69.3700   27.1090  -76.0442 O.2       9 UNK        -0.5274 
     30 CA        -71.0992   25.4794  -76.2604 C.3       8 UNK         0.0270 
     31 CB        -70.9890   24.8159  -74.8773 C.3       8 UNK        -0.1976 
     32 N         -72.4784   25.3533  -76.7393 N.am      8 UNK        -0.4313 
     33 C         -72.8739   25.5415  -78.0060 C.2       8 UNK         0.5041 
     34 O         -72.0984   25.7575  -78.9379 O.2       8 UNK        -0.5577 
     35 CA        -74.3891   25.5215  -78.2809 C.3       7 UNK         0.0284 
     36 CB        -74.8196   24.1449  -78.8098 C.3       7 UNK        -0.1958 
     37 N         -75.2137   25.8762  -77.1203 N.am      7 UNK        -0.4454 
     38 C         -75.1916   27.0563  -76.4817 C.2       7 UNK         0.5089 
     39 O         -74.4506   27.9900  -76.7892 O.2       7 UNK        -0.5125 
     40 CA        -76.1303   27.1952  -75.2732 C.3       6 UNK         0.0408 
     41 CB        -77.5641   27.4971  -75.7371 C.3       6 UNK        -0.1791 
     42 N         -76.1248   25.9879  -74.4459 N.am      6 UNK        -0.4762 
     43 C         -75.0927   25.5901  -73.6879 C.2       6 UNK         0.5007 
     44 O         -74.0328   26.2064  -73.5938 O.2       6 UNK        -0.5032 
     45 CA        -75.2427   24.2403  -72.9588 C.3       5 UNK         0.0783 
     46 C46       -75.9801   24.3823  -71.6024 C.3       11 UNK        -0.0857 
     47 S47       -77.7940   24.5714  -71.7467 S.3       11 UNK        -0.2512 
     48 C48       -78.1337   25.9542  -70.6122 C.3       11 UNK         0.0225 
     49 N         -75.8381   23.2099  -73.8151 N.am      5 UNK        -0.4615 
     50 C         -75.2763   22.7171  -74.9269 C.2       4 UNK         0.5053 
     51 O         -74.1519   23.0269  -75.3201 O.2       4 UNK        -0.5105 
     52 CA        -76.1263   21.7396  -75.7612 C.3       4 UNK         0.0263 
     53 CB        -75.8884   20.2943  -75.2963 C.3       4 UNK        -0.1981 
     54 N         -77.5674   22.0268  -75.7478 N.am      4 UNK        -0.4224 
     55 C         -78.1248   23.1843  -76.1302 C.2       3 UNK         0.4895 
     56 O         -77.4743   24.1565  -76.5278 O.2       3 UNK        -0.5091 
     57 CA        -79.6539   23.2866  -76.0241 C.3       3 UNK         0.0250 
     58 CB        -80.1275   23.1120  -74.5649 C.3       3 UNK        -0.1996 
     59 N         -80.0401   24.6023  -76.5225 N.am      3 UNK        -0.4254 
     60 C         -81.2741   25.0541  -76.7608 C.2       2 UNK         0.5004 
     61 O         -82.2961   24.3679  -76.6860 O.2       2 UNK        -0.5226 
     62 CA        -81.3770   26.5409  -77.1511 C.3       2 UNK         0.0269 
     63 CB        -81.8244   26.6906  -78.6147 C.3       2 UNK        -0.1926 
     64 N         -82.2809   27.3088  -76.2859 N.am      2 UNK        -0.4687 
     65 C         -82.2123   27.3789  -74.9471 C.2       1 UNK         0.5165 
     66 O         -81.3829   26.7695  -74.2678 O.2       1 UNK        -0.5079 
     67 H67       -85.9042   26.3075  -71.2801 H         1 UNK         0.0900 
     68 H68       -84.3014   26.7937  -70.7238 H         1 UNK         0.0900 
     69 H69       -84.5468   25.1844  -71.4050 H         1 UNK         0.0900 
     70 H70       -83.2444   28.1489  -72.1656 H         1 UNK         0.2959 
     71 H71       -84.0675   28.4462  -74.9145 H         1 UNK         0.1079 
     72 H72       -82.1364   30.1219  -74.9824 H         1 UNK         0.0837 
     73 H73       -83.3996   30.4586  -73.8463 H         1 UNK         0.0837 
     74 H74       -79.5076   30.6944  -73.9383 H         1 UNK         0.0685 
     75 H75       -79.9227   29.0702  -74.4181 H         1 UNK         0.0685 
     76 H76       -79.8088   27.3173  -72.2637 H         1 UNK         0.1434 
     77 H77       -75.9495   27.5975  -70.4153 H         1 UNK         0.1329 
     78 H78       -77.3885   30.8060  -72.8675 H         1 UNK         0.1335 
     79 H79       -75.3906   31.1117  -71.4921 H         1 UNK         0.0680 
     80 H80       -74.8837   29.8710  -70.3635 H         1 UNK         0.0680 
     81 H81       -72.7400   31.0005  -71.1479 H         1 UNK         0.1032 
     82 H82       -71.7036   29.7929  -71.8506 H         1 UNK         0.1032 
     83 H83       -72.9052   32.2049  -73.2844 H         1 UNK         0.0461 
     84 H84       -69.1907   33.3116  -73.3411 H         1 UNK         0.3453 
     85 H85       -70.0436   32.4367  -74.5899 H         1 UNK         0.3453 
     86 H86       -72.5913   31.2443  -75.2181 H         1 UNK         0.2984 
     87 H87       -72.2082   29.7889  -76.7149 H         1 UNK         0.0554 
     88 H88       -70.2275   29.4817  -78.2212 H         1 UNK         0.0847 
     89 H89       -69.1576   29.5781  -76.8218 H         1 UNK         0.0847 
     90 H90       -70.1385   30.9585  -77.2742 H         1 UNK         0.0847 
     91 H91       -72.4454   27.6464  -76.4855 H         1 UNK         0.3141 
     92 H92       -70.4551   24.9301  -76.9502 H         1 UNK         0.0743 
     93 H93       -69.9551   24.8089  -74.5295 H         1 UNK         0.0784 
     94 H94       -71.5785   25.3455  -74.1287 H         1 UNK         0.0784 
     95 H95       -71.3293   23.7803  -74.9031 H         1 UNK         0.0784 
     96 H96       -73.1830   25.1301  -76.0473 H         1 UNK         0.3213 
     97 H97       -74.5881   26.2637  -79.0568 H         1 UNK         0.0855 
     98 H98       -74.5926   23.3545  -78.0952 H         1 UNK         0.0814 
     99 H99       -74.2966   23.9038  -79.7362 H         1 UNK         0.0814 
    100 H100      -75.8886   24.1127  -79.0219 H         1 UNK         0.0814 
    101 H101      -75.8913   25.1825  -76.8115 H         1 UNK         0.3105 
    102 H102      -75.7864   28.0275  -74.6554 H         1 UNK         0.0547 
    103 H103      -77.8913   26.8146  -76.5206 H         1 UNK         0.0837 
    104 H104      -78.2740   27.4211  -74.9149 H         1 UNK         0.0837 
    105 H105      -77.6331   28.5083  -76.1396 H         1 UNK         0.0837 
    106 H106      -76.9392   25.3927  -74.4972 H         1 UNK         0.3020 
    107 H107      -74.2252   23.9100  -72.7355 H         1 UNK         0.1245 
    108 H108      -75.5596   25.2076  -71.0252 H         1 UNK         0.0781 
    109 H109      -75.7976   23.4896  -71.0025 H         1 UNK         0.0781 
    110 H110      -77.5315   25.8506  -69.7082 H         1 UNK         0.0836 
    111 H111      -79.1728   25.8855  -70.2867 H         1 UNK         0.0836 
    112 H112      -76.7680   22.9089  -73.5629 H         1 UNK         0.3022 
    113 H113      -75.7921   21.8193  -76.7967 H         1 UNK         0.0747 
    114 H114      -76.3976   19.5794  -75.9430 H         1 UNK         0.0793 
    115 H115      -74.8258   20.0474  -75.3188 H         1 UNK         0.0793 
    116 H116      -76.2384   20.1345  -74.2756 H         1 UNK         0.0793 
    117 H117      -78.1708   21.2792  -75.4364 H         1 UNK         0.3047 
    118 H118      -80.0980   22.5182  -76.6596 H         1 UNK         0.0822 
    119 H119      -79.8072   22.1593  -74.1426 H         1 UNK         0.0807 
    120 H120      -81.2148   23.1370  -74.4930 H         1 UNK         0.0807 
    121 H121      -79.7410   23.9048  -73.9238 H         1 UNK         0.0807 
    122 H122      -79.2408   25.2046  -76.6745 H         1 UNK         0.2946 
    123 H123      -80.3893   26.9957  -77.0535 H         1 UNK         0.1144 
    124 H124      -81.1573   26.1460  -79.2844 H         1 UNK         0.0793 
    125 H125      -81.8157   27.7341  -78.9303 H         1 UNK         0.0793 
    126 H126      -82.8310   26.2998  -78.7698 H         1 UNK         0.0793 
    127 H127      -83.0056   27.8292  -76.7589 H         1 UNK         0.2896 
@<TRIPOS>BOND
     1    1    2 1    
     2    1   67 1    
     3    1   68 1    
     4    1   69 1    
     5    2    3 2    
     6    2    4 am   BACKBONE|DICT|INTERRES
     7    4    5 1    
     8    4   70 1    
     9    5    6 1    
    10    5   65 1    
    11    5   71 1    
    12    6    7 1    
    13    6   72 1    
    14    6   73 1    
    15    7    8 1    
    16    8    9 1    
    17    8   74 1    
    18    8   75 1    
    19    9   10 ar   
    20    9   14 ar   
    21   10   11 ar   
    22   10   76 1    
    23   11   12 ar   
    24   11   48 1    
    25   12   13 ar   
    26   12   77 1    
    27   13   14 ar   
    28   13   15 1    
    29   14   78 1    
    30   15   16 1    
    31   15   79 1    
    32   15   80 1    
    33   16   17 1    
    34   17   18 1    
    35   17   81 1    
    36   17   82 1    
    37   18   19 1    
    38   18   22 1    
    39   18   83 1    
    40   19   20 am   BACKBONE|DICT|INTERRES
    41   19   21 2    
    42   20   84 1    
    43   20   85 1    
    44   22   23 am   BACKBONE|DICT|INTERRES
    45   22   86 1    
    46   23   24 2    
    47   23   25 1    
    48   25   26 1    
    49   25   27 1    
    50   25   87 1    
    51   26   88 1    
    52   26   89 1    
    53   26   90 1    
    54   27   28 am   BACKBONE|DICT|INTERRES
    55   27   91 1    
    56   28   29 2    
    57   28   30 1    
    58   30   31 1    
    59   30   32 1    
    60   30   92 1    
    61   31   93 1    
    62   31   94 1    
    63   31   95 1    
    64   32   33 am   BACKBONE|DICT|INTERRES
    65   32   96 1    
    66   33   34 2    
    67   33   35 1    
    68   35   36 1    
    69   35   37 1    
    70   35   97 1    
    71   36   98 1    
    72   36   99 1    
    73   36  100 1    
    74   37   38 am   BACKBONE|DICT|INTERRES
    75   37  101 1    
    76   38   39 2    
    77   38   40 1    
    78   40   41 1    
    79   40   42 1    
    80   40  102 1    
    81   41  103 1    
    82   41  104 1    
    83   41  105 1    
    84   42   43 am   BACKBONE|DICT|INTERRES
    85   42  106 1    
    86   43   44 2    
    87   43   45 1    
    88   45   46 1    
    89   45   49 1    
    90   45  107 1    
    91   46   47 1    
    92   46  108 1    
    93   46  109 1    
    94   47   48 1    
    95   48  110 1    
    96   48  111 1    
    97   49   50 am   BACKBONE|DICT|INTERRES
    98   49  112 1    
    99   50   51 2    
   100   50   52 1    
   101   52   53 1    
   102   52   54 1    
   103   52  113 1    
   104   53  114 1    
   105   53  115 1    
   106   53  116 1    
   107   54   55 am   BACKBONE|DICT|INTERRES
   108   54  117 1    
   109   55   56 2    
   110   55   57 1    
   111   57   58 1    
   112   57   59 1    
   113   57  118 1    
   114   58  119 1    
   115   58  120 1    
   116   58  121 1    
   117   59   60 am   BACKBONE|DICT|INTERRES
   118   59  122 1    
   119   60   61 2    
   120   60   62 1    
   121   62   63 1    
   122   62   64 1    
   123   62  123 1    
   124   63  124 1    
   125   63  125 1    
   126   63  126 1    
   127   64   65 am   BACKBONE|DICT|INTERRES
   128   64  127 1    
   129   65   66 2    
@<TRIPOS>SUBSTRUCTURE
     1 UNK         1 GROUP             0       ****    0 ROOT    
