@<TRIPOS>MOLECULE
3R135
127   129    1
SMALL
USER_CHARGES


@<TRIPOS>ATOM
      1 CA        -85.4505   28.2840  -75.3228 C.3       0 UNK        -0.1998 
      2 C         -83.9905   28.7102  -75.2930 C.2       0 UNK         0.4909 
      3 O         -83.3945   28.9305  -76.3475 O.2       0 UNK        -0.5240 
      4 N         -83.4084   28.8268  -74.0926 N.am      1 UNK        -0.4739 
      5 CA        -82.0078   29.2144  -73.8745 C.3       1 UNK         0.0864 
      6 C6        -81.7869   29.7337  -72.4289 C.3       11 UNK        -0.0881 
      7 S7        -82.0772   28.4774  -71.1261 S.3       11 UNK        -0.2682 
      8 C8        -80.8769   28.9560  -69.8413 C.3       11 UNK         0.0289 
      9 C9        -79.4375   28.5889  -70.1874 C.ar      11 UNK        -0.0687 
     10 C10       -78.9412   27.3092  -69.9046 C.ar      11 UNK        -0.0823 
     11 C11       -77.5963   26.9988  -70.1423 C.ar      11 UNK        -0.0830 
     12 C12       -76.7515   27.9834  -70.6654 C.ar      11 UNK        -0.1021 
     13 C13       -77.2429   29.2476  -70.9929 C.ar      11 UNK        -0.0753 
     14 C14       -78.5829   29.5497  -70.7390 C.ar      11 UNK        -0.0933 
     15 C15       -76.3198   30.2817  -71.6182 C.3       11 UNK         0.0166 
     16 S16       -76.2188   30.0556  -73.4217 S.3       11 UNK        -0.2615 
     17 C17       -75.0952   31.4185  -73.8853 C.3       11 UNK        -0.0865 
     18 CA        -73.9106   30.9578  -74.7751 C.3       10 UNK         0.0862 
     19 C         -73.0498   32.1825  -75.1925 C.2       10 UNK         0.5551 
     20 N         -73.3381   32.7824  -76.3392 N.am      10 UNK        -0.7319 
     21 O         -72.1620   32.6199  -74.4625 O.2       10 UNK        -0.5018 
     22 N         -73.1281   29.8958  -74.1245 N.am      10 UNK        -0.4509 
     23 C         -72.1118   29.2206  -74.6774 C.2       10 UNK         0.4899 
     24 O         -71.7081   29.4142  -75.8248 O.2       10 UNK        -0.4839 
     25 CA        -71.4306   28.1433  -73.8112 C.3       9 UNK         0.0222 
     26 CB        -72.1672   27.8441  -72.4865 C.3       9 UNK        -0.1966 
     27 N         -71.3244   26.9003  -74.5727 N.am      9 UNK        -0.4218 
     28 C         -70.2483   26.4740  -75.2459 C.2       9 UNK         0.5020 
     29 O         -69.1737   27.0757  -75.2806 O.2       9 UNK        -0.5274 
     30 CA        -70.3827   25.1403  -75.9987 C.3       8 UNK         0.0270 
     31 CB        -70.2482   23.9574  -75.0246 C.3       8 UNK        -0.1976 
     32 N         -71.6634   25.0396  -76.7040 N.am      8 UNK        -0.4313 
     33 C         -71.8083   24.9515  -78.0340 C.2       8 UNK         0.5041 
     34 O         -70.8646   24.9193  -78.8255 O.2       8 UNK        -0.5577 
     35 CA        -73.2451   24.8756  -78.5923 C.3       7 UNK         0.0284 
     36 CB        -73.6445   23.4115  -78.8382 C.3       7 UNK        -0.1958 
     37 N         -74.2477   25.5042  -77.7299 N.am      7 UNK        -0.4454 
     38 C         -74.2933   26.8092  -77.4311 C.2       7 UNK         0.5089 
     39 O         -73.5860   27.6558  -77.9756 O.2       7 UNK        -0.5125 
     40 CA        -75.2609   27.2461  -76.3159 C.3       6 UNK         0.0408 
     41 CB        -76.4986   27.9357  -76.9071 C.3       6 UNK        -0.1791 
     42 N         -75.6913   26.1759  -75.4088 N.am      6 UNK        -0.4762 
     43 C         -74.8923   25.4392  -74.6213 C.2       6 UNK         0.5007 
     44 O         -73.6631   25.4745  -74.6633 O.2       6 UNK        -0.5032 
     45 CA        -75.5919   24.5073  -73.6212 C.3       5 UNK         0.0783 
     46 C46       -76.2221   25.3669  -72.5001 C.3       11 UNK        -0.0857 
     47 S47       -77.1168   24.4446  -71.2102 S.3       11 UNK        -0.2512 
     48 C48       -77.0365   25.6169  -69.8087 C.3       11 UNK         0.0225 
     49 N         -76.5482   23.6644  -74.3396 N.am      5 UNK        -0.4615 
     50 C         -76.2032   22.5551  -75.0095 C.2       4 UNK         0.5053 
     51 O         -75.0734   22.0670  -74.9817 O.2       4 UNK        -0.5105 
     52 CA        -77.2829   21.8751  -75.8723 C.3       4 UNK         0.0263 
     53 CB        -78.0097   20.7900  -75.0619 C.3       4 UNK        -0.1981 
     54 N         -78.2686   22.8072  -76.4236 N.am      4 UNK        -0.4224 
     55 C         -78.0026   23.7781  -77.3104 C.2       3 UNK         0.4895 
     56 O         -76.8977   23.9577  -77.8221 O.2       3 UNK        -0.5091 
     57 CA        -79.1561   24.7486  -77.6368 C.3       3 UNK         0.0250 
     58 CB        -79.9710   24.2308  -78.8325 C.3       3 UNK        -0.1996 
     59 N         -80.0577   25.0137  -76.5051 N.am      3 UNK        -0.4254 
     60 C         -79.6649   25.4589  -75.3026 C.2       2 UNK         0.5004 
     61 O         -78.4919   25.7151  -75.0257 O.2       2 UNK        -0.5226 
     62 CA        -80.7522   25.5719  -74.2205 C.3       2 UNK         0.0269 
     63 CB        -80.1761   25.3252  -72.8138 C.3       2 UNK        -0.1926 
     64 N         -81.4842   26.8416  -74.2224 N.am      2 UNK        -0.4687 
     65 C         -81.0001   28.0957  -74.2218 C.2       1 UNK         0.5165 
     66 O         -79.8285   28.4024  -74.4372 O.2       1 UNK        -0.5079 
     67 H67       -86.0546   29.0497  -75.8087 H         1 UNK         0.0900 
     68 H68       -85.8491   28.1231  -74.3212 H         1 UNK         0.0900 
     69 H69       -85.5596   27.3565  -75.8844 H         1 UNK         0.0900 
     70 H70       -83.9392   28.6344  -73.2539 H         1 UNK         0.2959 
     71 H71       -81.7875   30.0414  -74.5538 H         1 UNK         0.1079 
     72 H72       -80.7762   30.1308  -72.3386 H         1 UNK         0.0837 
     73 H73       -82.4477   30.5803  -72.2367 H         1 UNK         0.0837 
     74 H74       -80.9629   30.0268  -69.6499 H         1 UNK         0.0685 
     75 H75       -81.1570   28.4636  -68.9089 H         1 UNK         0.0685 
     76 H76       -79.5990   26.5607  -69.4844 H         1 UNK         0.1434 
     77 H77       -75.7068   27.7672  -70.8358 H         1 UNK         0.1329 
     78 H78       -78.9562   30.5391  -70.9633 H         1 UNK         0.1335 
     79 H79       -76.6766   31.2892  -71.3985 H         1 UNK         0.0680 
     80 H80       -75.3222   30.2020  -71.1834 H         1 UNK         0.0680 
     81 H81       -74.7212   31.9107  -72.9853 H         1 UNK         0.1032 
     82 H82       -75.6913   32.1685  -74.4090 H         1 UNK         0.1032 
     83 H83       -74.3275   30.5189  -75.6842 H         1 UNK         0.0461 
     84 H84       -74.0705   32.4366  -76.9395 H         1 UNK         0.3453 
     85 H85       -72.8022   33.5893  -76.6184 H         1 UNK         0.3453 
     86 H86       -73.3927   29.6786  -73.1764 H         1 UNK         0.2984 
     87 H87       -70.4339   28.5135  -73.5635 H         1 UNK         0.0554 
     88 H88       -71.6620   27.0539  -71.9306 H         1 UNK         0.0847 
     89 H89       -73.1955   27.5191  -72.6526 H         1 UNK         0.0847 
     90 H90       -72.1896   28.7185  -71.8349 H         1 UNK         0.0847 
     91 H91       -72.1759   26.3416  -74.6121 H         1 UNK         0.3141 
     92 H92       -69.5535   25.0858  -76.7072 H         1 UNK         0.0743 
     93 H93       -70.2608   23.0059  -75.5565 H         1 UNK         0.0784 
     94 H94       -69.3076   24.0088  -74.4743 H         1 UNK         0.0784 
     95 H95       -71.0564   23.9408  -74.2920 H         1 UNK         0.0784 
     96 H96       -72.5003   25.0825  -76.1292 H         1 UNK         0.3213 
     97 H97       -73.2521   25.4006  -79.5499 H         1 UNK         0.0855 
     98 H98       -73.7005   22.8467  -77.9064 H         1 UNK         0.0814 
     99 H99       -72.9206   22.9105  -79.4824 H         1 UNK         0.0814 
    100 H100      -74.6153   23.3429  -79.3297 H         1 UNK         0.0814 
    101 H101      -74.9399   24.8955  -77.3089 H         1 UNK         0.3105 
    102 H102      -74.7315   27.9787  -75.7049 H         1 UNK         0.0547 
    103 H103      -76.2140   28.8048  -77.5015 H         1 UNK         0.0837 
    104 H104      -77.0573   27.2642  -77.5573 H         1 UNK         0.0837 
    105 H105      -77.1726   28.2850  -76.1235 H         1 UNK         0.0837 
    106 H106      -76.6989   26.0601  -75.3011 H         1 UNK         0.3020 
    107 H107      -74.8289   23.8708  -73.1668 H         1 UNK         0.1245 
    108 H108      -76.9110   26.1100  -72.9077 H         1 UNK         0.0781 
    109 H109      -75.4214   25.9222  -72.0112 H         1 UNK         0.0781 
    110 H110      -76.0003   25.7056  -69.4786 H         1 UNK         0.0836 
    111 H111      -77.5825   25.1909  -68.9658 H         1 UNK         0.0836 
    112 H112      -77.4739   24.0575  -74.4617 H         1 UNK         0.3022 
    113 H113      -76.7756   21.3949  -76.7119 H         1 UNK         0.0747 
    114 H114      -78.7203   20.2407  -75.6799 H         1 UNK         0.0793 
    115 H115      -77.3015   20.0627  -74.6621 H         1 UNK         0.0793 
    116 H116      -78.5537   21.2131  -74.2163 H         1 UNK         0.0793 
    117 H117      -79.2093   22.7373  -76.0649 H         1 UNK         0.3047 
    118 H118      -78.7076   25.7009  -77.9217 H         1 UNK         0.0822 
    119 H119      -80.7234   24.9555  -79.1445 H         1 UNK         0.0807 
    120 H120      -80.4805   23.2946  -78.6009 H         1 UNK         0.0807 
    121 H121      -79.3261   24.0467  -79.6931 H         1 UNK         0.0807 
    122 H122      -81.0402   24.8381  -76.6611 H         1 UNK         0.2946 
    123 H123      -81.4845   24.7855  -74.4110 H         1 UNK         0.1144 
    124 H124      -80.9585   25.3268  -72.0550 H         1 UNK         0.0793 
    125 H125      -79.4478   26.0895  -72.5386 H         1 UNK         0.0793 
    126 H126      -79.6746   24.3584  -72.7616 H         1 UNK         0.0793 
    127 H127      -82.4795   26.7596  -74.0710 H         1 UNK         0.2896 
@<TRIPOS>BOND
     1    1    2 1    
     2    1   67 1    
     3    1   68 1    
     4    1   69 1    
     5    2    3 2    
     6    2    4 am   BACKBONE|DICT|INTERRES
     7    4    5 1    
     8    4   70 1    
     9    5    6 1    
    10    5   65 1    
    11    5   71 1    
    12    6    7 1    
    13    6   72 1    
    14    6   73 1    
    15    7    8 1    
    16    8    9 1    
    17    8   74 1    
    18    8   75 1    
    19    9   10 ar   
    20    9   14 ar   
    21   10   11 ar   
    22   10   76 1    
    23   11   12 ar   
    24   11   48 1    
    25   12   13 ar   
    26   12   77 1    
    27   13   14 ar   
    28   13   15 1    
    29   14   78 1    
    30   15   16 1    
    31   15   79 1    
    32   15   80 1    
    33   16   17 1    
    34   17   18 1    
    35   17   81 1    
    36   17   82 1    
    37   18   19 1    
    38   18   22 1    
    39   18   83 1    
    40   19   20 am   BACKBONE|DICT|INTERRES
    41   19   21 2    
    42   20   84 1    
    43   20   85 1    
    44   22   23 am   BACKBONE|DICT|INTERRES
    45   22   86 1    
    46   23   24 2    
    47   23   25 1    
    48   25   26 1    
    49   25   27 1    
    50   25   87 1    
    51   26   88 1    
    52   26   89 1    
    53   26   90 1    
    54   27   28 am   BACKBONE|DICT|INTERRES
    55   27   91 1    
    56   28   29 2    
    57   28   30 1    
    58   30   31 1    
    59   30   32 1    
    60   30   92 1    
    61   31   93 1    
    62   31   94 1    
    63   31   95 1    
    64   32   33 am   BACKBONE|DICT|INTERRES
    65   32   96 1    
    66   33   34 2    
    67   33   35 1    
    68   35   36 1    
    69   35   37 1    
    70   35   97 1    
    71   36   98 1    
    72   36   99 1    
    73   36  100 1    
    74   37   38 am   BACKBONE|DICT|INTERRES
    75   37  101 1    
    76   38   39 2    
    77   38   40 1    
    78   40   41 1    
    79   40   42 1    
    80   40  102 1    
    81   41  103 1    
    82   41  104 1    
    83   41  105 1    
    84   42   43 am   BACKBONE|DICT|INTERRES
    85   42  106 1    
    86   43   44 2    
    87   43   45 1    
    88   45   46 1    
    89   45   49 1    
    90   45  107 1    
    91   46   47 1    
    92   46  108 1    
    93   46  109 1    
    94   47   48 1    
    95   48  110 1    
    96   48  111 1    
    97   49   50 am   BACKBONE|DICT|INTERRES
    98   49  112 1    
    99   50   51 2    
   100   50   52 1    
   101   52   53 1    
   102   52   54 1    
   103   52  113 1    
   104   53  114 1    
   105   53  115 1    
   106   53  116 1    
   107   54   55 am   BACKBONE|DICT|INTERRES
   108   54  117 1    
   109   55   56 2    
   110   55   57 1    
   111   57   58 1    
   112   57   59 1    
   113   57  118 1    
   114   58  119 1    
   115   58  120 1    
   116   58  121 1    
   117   59   60 am   BACKBONE|DICT|INTERRES
   118   59  122 1    
   119   60   61 2    
   120   60   62 1    
   121   62   63 1    
   122   62   64 1    
   123   62  123 1    
   124   63  124 1    
   125   63  125 1    
   126   63  126 1    
   127   64   65 am   BACKBONE|DICT|INTERRES
   128   64  127 1    
   129   65   66 2    
@<TRIPOS>SUBSTRUCTURE
     1 UNK         1 GROUP             0       ****    0 ROOT    
