@<TRIPOS>MOLECULE
3R135
127   129    1
SMALL
USER_CHARGES


@<TRIPOS>ATOM
      1 CA        -84.3614   24.5622  -72.8875 C.3       0 UNK        -0.1998 
      2 C         -82.8981   24.9709  -72.9593 C.2       0 UNK         0.4909 
      3 O         -82.0250   24.1027  -72.9753 O.2       0 UNK        -0.5240 
      4 N         -82.6313   26.2851  -73.0143 N.am      1 UNK        -0.4739 
      5 CA        -81.2992   26.9105  -73.0605 C.3       1 UNK         0.0864 
      6 C6        -80.5423   26.8272  -71.7058 C.3       11 UNK        -0.0881 
      7 S7        -81.2714   27.9779  -70.4929 S.3       11 UNK        -0.2682 
      8 C8        -79.7858   28.6204  -69.6416 C.3       11 UNK         0.0289 
      9 C9        -78.8420   29.5176  -70.4524 C.ar      11 UNK        -0.0687 
     10 C10       -79.0847   29.9144  -71.7768 C.ar      11 UNK        -0.0823 
     11 C11       -78.1692   30.7221  -72.4626 C.ar      11 UNK        -0.0830 
     12 C12       -77.0095   31.1501  -71.8106 C.ar      11 UNK        -0.1021 
     13 C13       -76.7547   30.7716  -70.4901 C.ar      11 UNK        -0.0753 
     14 C14       -77.6760   29.9619  -69.8206 C.ar      11 UNK        -0.0933 
     15 C15       -75.4835   31.2391  -69.7894 C.3       11 UNK         0.0166 
     16 S16       -74.4315   29.8551  -69.2359 S.3       11 UNK        -0.2615 
     17 C17       -74.0555   29.0159  -70.8123 C.3       11 UNK        -0.0865 
     18 CA        -72.5966   29.2518  -71.3099 C.3       10 UNK         0.0862 
     19 C         -71.5973   28.1712  -70.7887 C.2       10 UNK         0.5551 
     20 N         -70.7388   27.5924  -71.6213 N.am      10 UNK        -0.7319 
     21 O         -71.5734   27.8737  -69.5972 O.2       10 UNK        -0.5018 
     22 N         -72.5286   29.5018  -72.7605 N.am      10 UNK        -0.4509 
     23 C         -72.9922   28.6837  -73.7131 C.2       10 UNK         0.4899 
     24 O         -73.6227   27.6537  -73.4737 O.2       10 UNK        -0.4839 
     25 CA        -72.7108   29.0687  -75.1812 C.3       9 UNK         0.0222 
     26 CB        -71.6652   30.1950  -75.3565 C.3       9 UNK        -0.1966 
     27 N         -72.3471   27.8936  -75.9859 N.am      9 UNK        -0.4218 
     28 C         -71.3149   27.0668  -75.7521 C.2       9 UNK         0.5020 
     29 O         -70.5024   27.2387  -74.8392 O.2       9 UNK        -0.5274 
     30 CA        -71.1456   25.8562  -76.6869 C.3       8 UNK         0.0270 
     31 CB        -70.4194   24.6805  -75.9976 C.3       8 UNK        -0.1976 
     32 N         -72.4165   25.3889  -77.2514 N.am      8 UNK        -0.4313 
     33 C         -72.5212   24.7352  -78.4170 C.2       8 UNK         0.5041 
     34 O         -71.5788   24.5607  -79.1915 O.2       8 UNK        -0.5577 
     35 CA        -73.8968   24.1578  -78.7796 C.3       7 UNK         0.0284 
     36 CB        -74.2363   22.9423  -77.8997 C.3       7 UNK        -0.1958 
     37 N         -74.9580   25.1562  -78.6739 N.am      7 UNK        -0.4454 
     38 C         -75.2793   26.0289  -79.6386 C.2       7 UNK         0.5089 
     39 O         -74.7004   26.0924  -80.7237 O.2       7 UNK        -0.5125 
     40 CA        -76.4561   26.9828  -79.3657 C.3       6 UNK         0.0408 
     41 CB        -77.7050   26.5343  -80.1426 C.3       6 UNK        -0.1791 
     42 N         -76.7732   27.0882  -77.9371 N.am      6 UNK        -0.4762 
     43 C         -76.1347   27.9281  -77.1082 C.2       6 UNK         0.5007 
     44 O         -75.2451   28.6931  -77.4813 O.2       6 UNK        -0.5032 
     45 CA        -76.5043   27.8803  -75.6116 C.3       5 UNK         0.0783 
     46 C46       -77.6971   28.8075  -75.2634 C.3       11 UNK        -0.0857 
     47 S47       -77.2056   30.5526  -75.0845 S.3       11 UNK        -0.2512 
     48 C48       -78.4450   31.1698  -73.8945 C.3       11 UNK         0.0225 
     49 N         -76.7132   26.5260  -75.0984 N.am      5 UNK        -0.4615 
     50 C         -75.7993   25.5468  -75.0692 C.2       4 UNK         0.5053 
     51 O         -74.7205   25.5925  -75.6602 O.2       4 UNK        -0.5105 
     52 CA        -76.1620   24.3007  -74.2523 C.3       4 UNK         0.0263 
     53 CB        -76.1268   24.6165  -72.7472 C.3       4 UNK        -0.1981 
     54 N         -77.4940   23.8274  -74.6221 N.am      4 UNK        -0.4224 
     55 C         -77.7391   22.7494  -75.3786 C.2       3 UNK         0.4895 
     56 O         -76.8775   21.9432  -75.7303 O.2       3 UNK        -0.5091 
     57 CA        -79.1922   22.5402  -75.8491 C.3       3 UNK         0.0250 
     58 CB        -79.9393   21.6032  -74.8867 C.3       3 UNK        -0.1996 
     59 N         -79.9586   23.7817  -76.0020 N.am      3 UNK        -0.4254 
     60 C         -79.6254   24.8019  -76.8067 C.2       2 UNK         0.5004 
     61 O         -78.6342   24.8094  -77.5349 O.2       2 UNK        -0.5226 
     62 CA        -80.5026   26.0627  -76.7462 C.3       2 UNK         0.0269 
     63 CB        -81.6079   25.9934  -77.8111 C.3       2 UNK        -0.1926 
     64 N         -81.1047   26.3498  -75.4377 N.am      2 UNK        -0.4687 
     65 C         -80.4607   26.4281  -74.2622 C.2       1 UNK         0.5165 
     66 O         -79.2706   26.1424  -74.1159 O.2       1 UNK        -0.5079 
     67 H67       -85.0272   25.4250  -72.8839 H         1 UNK         0.0900 
     68 H68       -84.6188   23.9381  -73.7428 H         1 UNK         0.0900 
     69 H69       -84.5452   23.9887  -71.9794 H         1 UNK         0.0900 
     70 H70       -83.4046   26.9360  -72.9962 H         1 UNK         0.2959 
     71 H71       -81.4737   27.9659  -73.2752 H         1 UNK         0.1079 
     72 H72       -79.4874   27.0825  -71.8191 H         1 UNK         0.0837 
     73 H73       -80.5607   25.8128  -71.3045 H         1 UNK         0.0837 
     74 H74       -80.1234   29.1829  -68.7700 H         1 UNK         0.0685 
     75 H75       -79.2211   27.7702  -69.2556 H         1 UNK         0.0685 
     76 H76       -79.9866   29.6053  -72.2819 H         1 UNK         0.1434 
     77 H77       -76.3042   31.7785  -72.3375 H         1 UNK         0.1329 
     78 H78       -77.4756   29.6682  -68.7989 H         1 UNK         0.1335 
     79 H79       -75.7583   31.8415  -68.9226 H         1 UNK         0.0680 
     80 H80       -74.8949   31.8872  -70.4408 H         1 UNK         0.0680 
     81 H81       -74.7688   29.3576  -71.5617 H         1 UNK         0.1032 
     82 H82       -74.2667   27.9504  -70.7025 H         1 UNK         0.1032 
     83 H83       -72.2407   30.1868  -70.8756 H         1 UNK         0.0461 
     84 H84       -70.7609   27.7869  -72.6134 H         1 UNK         0.3453 
     85 H85       -70.0932   26.9079  -71.2615 H         1 UNK         0.3453 
     86 H86       -72.0023   30.3172  -73.0390 H         1 UNK         0.2984 
     87 H87       -73.6518   29.4443  -75.5799 H         1 UNK         0.0554 
     88 H88       -72.0054   31.1285  -74.9065 H         1 UNK         0.0847 
     89 H89       -71.4909   30.4034  -76.4122 H         1 UNK         0.0847 
     90 H90       -70.7034   29.9389  -74.9104 H         1 UNK         0.0847 
     91 H91       -72.9800   27.6709  -76.7418 H         1 UNK         0.3141 
     92 H92       -70.5127   26.2121  -77.5025 H         1 UNK         0.0743 
     93 H93       -70.9950   24.2983  -75.1539 H         1 UNK         0.0784 
     94 H94       -70.2477   23.8547  -76.6880 H         1 UNK         0.0784 
     95 H95       -69.4427   24.9843  -75.6186 H         1 UNK         0.0784 
     96 H96       -73.2412   25.4767  -76.6536 H         1 UNK         0.3213 
     97 H97       -73.8470   23.8078  -79.8134 H         1 UNK         0.0855 
     98 H98       -74.3060   23.2029  -76.8436 H         1 UNK         0.0814 
     99 H99       -73.4717   22.1700  -77.9926 H         1 UNK         0.0814 
    100 H100      -75.1859   22.4939  -78.1926 H         1 UNK         0.0814 
    101 H101      -75.4498   25.2115  -77.7926 H         1 UNK         0.3105 
    102 H102      -76.1755   27.9684  -79.7436 H         1 UNK         0.0547 
    103 H103      -77.5315   26.5938  -81.2177 H         1 UNK         0.0837 
    104 H104      -77.9748   25.5019  -79.9206 H         1 UNK         0.0837 
    105 H105      -78.5653   27.1648  -79.9180 H         1 UNK         0.0837 
    106 H106      -77.4512   26.4248  -77.5735 H         1 UNK         0.3020 
    107 H107      -75.6345   28.2503  -75.0693 H         1 UNK         0.1245 
    108 H108      -78.1263   28.5064  -74.3074 H         1 UNK         0.0781 
    109 H109      -78.5029   28.7264  -75.9947 H         1 UNK         0.0781 
    110 H110      -79.4401   30.8620  -74.2195 H         1 UNK         0.0836 
    111 H111      -78.4416   32.2603  -73.9247 H         1 UNK         0.0836 
    112 H112      -77.6003   26.3747  -74.6227 H         1 UNK         0.3022 
    113 H113      -75.4087   23.5366  -74.4557 H         1 UNK         0.0747 
    114 H114      -76.3032   23.7200  -72.1529 H         1 UNK         0.0793 
    115 H115      -75.1532   25.0144  -72.4559 H         1 UNK         0.0793 
    116 H116      -76.8783   25.3559  -72.4664 H         1 UNK         0.0793 
    117 H117      -78.2692   24.4455  -74.4042 H         1 UNK         0.3047 
    118 H118      -79.1472   22.0626  -76.8301 H         1 UNK         0.0822 
    119 H119      -80.9347   21.3615  -75.2599 H         1 UNK         0.0807 
    120 H120      -80.0517   22.0491  -73.8972 H         1 UNK         0.0807 
    121 H121      -79.4034   20.6611  -74.7624 H         1 UNK         0.0807 
    122 H122      -80.7684   23.8911  -75.4066 H         1 UNK         0.2946 
    123 H123      -79.8550   26.9068  -76.9900 H         1 UNK         0.1144 
    124 H124      -81.1872   25.8021  -78.7997 H         1 UNK         0.0793 
    125 H125      -82.1597   26.9315  -77.8742 H         1 UNK         0.0793 
    126 H126      -82.3218   25.1961  -77.6005 H         1 UNK         0.0793 
    127 H127      -82.0902   26.5721  -75.4423 H         1 UNK         0.2896 
@<TRIPOS>BOND
     1    1    2 1    
     2    1   67 1    
     3    1   68 1    
     4    1   69 1    
     5    2    3 2    
     6    2    4 am   BACKBONE|DICT|INTERRES
     7    4    5 1    
     8    4   70 1    
     9    5    6 1    
    10    5   65 1    
    11    5   71 1    
    12    6    7 1    
    13    6   72 1    
    14    6   73 1    
    15    7    8 1    
    16    8    9 1    
    17    8   74 1    
    18    8   75 1    
    19    9   10 ar   
    20    9   14 ar   
    21   10   11 ar   
    22   10   76 1    
    23   11   12 ar   
    24   11   48 1    
    25   12   13 ar   
    26   12   77 1    
    27   13   14 ar   
    28   13   15 1    
    29   14   78 1    
    30   15   16 1    
    31   15   79 1    
    32   15   80 1    
    33   16   17 1    
    34   17   18 1    
    35   17   81 1    
    36   17   82 1    
    37   18   19 1    
    38   18   22 1    
    39   18   83 1    
    40   19   20 am   BACKBONE|DICT|INTERRES
    41   19   21 2    
    42   20   84 1    
    43   20   85 1    
    44   22   23 am   BACKBONE|DICT|INTERRES
    45   22   86 1    
    46   23   24 2    
    47   23   25 1    
    48   25   26 1    
    49   25   27 1    
    50   25   87 1    
    51   26   88 1    
    52   26   89 1    
    53   26   90 1    
    54   27   28 am   BACKBONE|DICT|INTERRES
    55   27   91 1    
    56   28   29 2    
    57   28   30 1    
    58   30   31 1    
    59   30   32 1    
    60   30   92 1    
    61   31   93 1    
    62   31   94 1    
    63   31   95 1    
    64   32   33 am   BACKBONE|DICT|INTERRES
    65   32   96 1    
    66   33   34 2    
    67   33   35 1    
    68   35   36 1    
    69   35   37 1    
    70   35   97 1    
    71   36   98 1    
    72   36   99 1    
    73   36  100 1    
    74   37   38 am   BACKBONE|DICT|INTERRES
    75   37  101 1    
    76   38   39 2    
    77   38   40 1    
    78   40   41 1    
    79   40   42 1    
    80   40  102 1    
    81   41  103 1    
    82   41  104 1    
    83   41  105 1    
    84   42   43 am   BACKBONE|DICT|INTERRES
    85   42  106 1    
    86   43   44 2    
    87   43   45 1    
    88   45   46 1    
    89   45   49 1    
    90   45  107 1    
    91   46   47 1    
    92   46  108 1    
    93   46  109 1    
    94   47   48 1    
    95   48  110 1    
    96   48  111 1    
    97   49   50 am   BACKBONE|DICT|INTERRES
    98   49  112 1    
    99   50   51 2    
   100   50   52 1    
   101   52   53 1    
   102   52   54 1    
   103   52  113 1    
   104   53  114 1    
   105   53  115 1    
   106   53  116 1    
   107   54   55 am   BACKBONE|DICT|INTERRES
   108   54  117 1    
   109   55   56 2    
   110   55   57 1    
   111   57   58 1    
   112   57   59 1    
   113   57  118 1    
   114   58  119 1    
   115   58  120 1    
   116   58  121 1    
   117   59   60 am   BACKBONE|DICT|INTERRES
   118   59  122 1    
   119   60   61 2    
   120   60   62 1    
   121   62   63 1    
   122   62   64 1    
   123   62  123 1    
   124   63  124 1    
   125   63  125 1    
   126   63  126 1    
   127   64   65 am   BACKBONE|DICT|INTERRES
   128   64  127 1    
   129   65   66 2    
@<TRIPOS>SUBSTRUCTURE
     1 UNK         1 GROUP             0       ****    0 ROOT    
