@<TRIPOS>MOLECULE
3R135
127   129    1
SMALL
USER_CHARGES


@<TRIPOS>ATOM
      1 CA        -81.0187   23.1957  -75.0855 C.3       0 UNK        -0.1998 
      2 C         -82.0220   24.2617  -74.6736 C.2       0 UNK         0.4909 
      3 O         -83.2117   24.1348  -74.9658 O.2       0 UNK        -0.5240 
      4 N         -81.5478   25.3139  -73.9955 N.am      1 UNK        -0.4739 
      5 CA        -82.3596   26.4656  -73.5762 C.3       1 UNK         0.0864 
      6 C6        -81.8028   27.1377  -72.2935 C.3       11 UNK        -0.0881 
      7 S7        -80.0684   27.6952  -72.4479 S.3       11 UNK        -0.2682 
      8 C8        -79.3100   26.9768  -70.9559 C.3       11 UNK         0.0289 
      9 C9        -77.7938   26.8857  -71.0734 C.ar      11 UNK        -0.0687 
     10 C10       -77.1520   25.6620  -70.8709 C.ar      11 UNK        -0.0823 
     11 C11       -75.7642   25.5534  -70.9978 C.ar      11 UNK        -0.0830 
     12 C12       -75.0165   26.6927  -71.3069 C.ar      11 UNK        -0.1021 
     13 C13       -75.6355   27.9340  -71.4882 C.ar      11 UNK        -0.0753 
     14 C14       -77.0298   28.0189  -71.3674 C.ar      11 UNK        -0.0933 
     15 C15       -74.7464   29.1381  -71.8024 C.3       11 UNK         0.0166 
     16 S16       -75.6157   30.7111  -72.1305 S.3       11 UNK        -0.2615 
     17 C17       -74.2166   31.8080  -72.5470 C.3       11 UNK        -0.0865 
     18 CA        -74.1372   32.1164  -74.0703 C.3       10 UNK         0.0862 
     19 C         -73.1330   33.2615  -74.4083 C.2       10 UNK         0.5551 
     20 N         -72.5048   33.2614  -75.5778 N.am      10 UNK        -0.7319 
     21 O         -72.9433   34.1830  -73.6176 O.2       10 UNK        -0.5018 
     22 N         -73.9952   30.9000  -74.8911 N.am      10 UNK        -0.4509 
     23 C         -72.9461   30.0699  -74.9159 C.2       10 UNK         0.4899 
     24 O         -71.9220   30.2404  -74.2531 O.2       10 UNK        -0.4839 
     25 CA        -73.0964   28.8569  -75.8525 C.3       9 UNK         0.0222 
     26 CB        -72.6219   29.1906  -77.2800 C.3       9 UNK        -0.1966 
     27 N         -72.4738   27.6269  -75.3511 N.am      9 UNK        -0.4218 
     28 C         -71.1790   27.3347  -75.1720 C.2       9 UNK         0.5020 
     29 O         -70.2381   28.0686  -75.4775 O.2       9 UNK        -0.5274 
     30 CA        -70.8768   25.9503  -74.5733 C.3       8 UNK         0.0270 
     31 CB        -71.3839   25.8274  -73.1207 C.3       8 UNK        -0.1976 
     32 N         -71.3413   24.8359  -75.4113 N.am      8 UNK        -0.4313 
     33 C         -72.5987   24.4691  -75.6927 C.2       8 UNK         0.5041 
     34 O         -73.6104   25.0429  -75.2633 O.2       8 UNK        -0.5577 
     35 CA        -72.7487   23.2460  -76.6094 C.3       7 UNK         0.0284 
     36 CB        -72.3074   21.9619  -75.8760 C.3       7 UNK        -0.1958 
     37 N         -74.1566   23.1696  -76.9629 N.am      7 UNK        -0.4454 
     38 C         -74.7817   22.3264  -77.7897 C.2       7 UNK         0.5089 
     39 O         -74.2038   21.5176  -78.5174 O.2       7 UNK        -0.5125 
     40 CA        -76.3256   22.4110  -77.7802 C.3       6 UNK         0.0408 
     41 CB        -77.0011   21.0775  -78.1627 C.3       6 UNK        -0.1791 
     42 N         -76.8515   22.9337  -76.5067 N.am      6 UNK        -0.4762 
     43 C         -76.6978   22.3952  -75.2826 C.2       6 UNK         0.5007 
     44 O         -76.2378   21.2692  -75.0896 O.2       6 UNK        -0.5032 
     45 CA        -77.0660   23.3026  -74.0884 C.3       5 UNK         0.0783 
     46 C46       -76.5417   22.7782  -72.7193 C.3       11 UNK        -0.0857 
     47 S47       -74.8262   23.2695  -72.3075 S.3       11 UNK        -0.2512 
     48 C48       -75.0677   24.2170  -70.7670 C.3       11 UNK         0.0225 
     49 N         -76.6367   24.6788  -74.3745 N.am      5 UNK        -0.4615 
     50 C         -77.4417   25.6897  -74.7060 C.2       4 UNK         0.5053 
     51 O         -78.6737   25.6126  -74.7288 O.2       4 UNK        -0.5105 
     52 CA        -76.7517   26.9715  -75.1846 C.3       4 UNK         0.0263 
     53 CB        -76.3899   26.8195  -76.6789 C.3       4 UNK        -0.1981 
     54 N         -77.6892   28.0688  -74.9820 N.am      4 UNK        -0.4224 
     55 C         -77.5131   29.3683  -75.2468 C.2       3 UNK         0.4895 
     56 O         -76.4736   29.8517  -75.6979 O.2       3 UNK        -0.5091 
     57 CA        -78.7344   30.2699  -74.9785 C.3       3 UNK         0.0250 
     58 CB        -78.5771   31.6937  -75.5532 C.3       3 UNK        -0.1996 
     59 N         -79.9866   29.6437  -75.4294 N.am      3 UNK        -0.4254 
     60 C         -80.3019   29.2584  -76.6780 C.2       2 UNK         0.5004 
     61 O         -79.6162   29.5078  -77.6705 O.2       2 UNK        -0.5226 
     62 CA        -81.5771   28.4072  -76.8255 C.3       2 UNK         0.0269 
     63 CB        -81.6209   27.6344  -78.1576 C.3       2 UNK        -0.1926 
     64 N         -81.6643   27.4463  -75.7238 N.am      2 UNK        -0.4687 
     65 C         -82.5404   27.4965  -74.7116 C.2       1 UNK         0.5165 
     66 O         -83.4422   28.3316  -74.6327 O.2       1 UNK        -0.5079 
     67 H67       -80.2333   23.6258  -75.7063 H         1 UNK         0.0900 
     68 H68       -81.5058   22.4068  -75.6581 H         1 UNK         0.0900 
     69 H69       -80.5638   22.7428  -74.2055 H         1 UNK         0.0900 
     70 H70       -80.5477   25.3970  -73.8386 H         1 UNK         0.2959 
     71 H71       -83.3636   26.1073  -73.3367 H         1 UNK         0.1079 
     72 H72       -82.4168   27.9946  -72.0088 H         1 UNK         0.0837 
     73 H73       -81.8892   26.4367  -71.4625 H         1 UNK         0.0837 
     74 H74       -79.5718   27.5852  -70.0894 H         1 UNK         0.0685 
     75 H75       -79.7310   25.9853  -70.7828 H         1 UNK         0.0685 
     76 H76       -77.7386   24.7934  -70.6092 H         1 UNK         0.1434 
     77 H77       -73.9417   26.6149  -71.3923 H         1 UNK         0.1329 
     78 H78       -77.5409   28.9603  -71.5043 H         1 UNK         0.1335 
     79 H79       -74.0599   29.2908  -70.9684 H         1 UNK         0.0680 
     80 H80       -74.1351   28.8884  -72.6683 H         1 UNK         0.0680 
     81 H81       -73.2789   31.3811  -72.1881 H         1 UNK         0.1032 
     82 H82       -74.3593   32.7289  -71.9789 H         1 UNK         0.1032 
     83 H83       -75.1058   32.5280  -74.3563 H         1 UNK         0.0461 
     84 H84       -72.6594   32.5148  -76.2356 H         1 UNK         0.3453 
     85 H85       -71.8651   34.0084  -75.7976 H         1 UNK         0.3453 
     86 H86       -74.8333   30.6309  -75.4044 H         1 UNK         0.2984 
     87 H87       -74.1577   28.6216  -75.9057 H         1 UNK         0.0554 
     88 H88       -72.7508   28.3403  -77.9497 H         1 UNK         0.0847 
     89 H89       -71.5712   29.4812  -77.3026 H         1 UNK         0.0847 
     90 H90       -73.1956   30.0195  -77.6963 H         1 UNK         0.0847 
     91 H91       -73.1177   26.8732  -75.1204 H         1 UNK         0.3141 
     92 H92       -69.7898   25.8583  -74.5385 H         1 UNK         0.0743 
     93 H93       -72.4710   25.8638  -73.0582 H         1 UNK         0.0784 
     94 H94       -71.0592   24.8904  -72.6683 H         1 UNK         0.0784 
     95 H95       -70.9964   26.6385  -72.5030 H         1 UNK         0.0784 
     96 H96       -70.5988   24.3059  -75.8471 H         1 UNK         0.3213 
     97 H97       -72.1582   23.3951  -77.5153 H         1 UNK         0.0855 
     98 H98       -71.2617   22.0148  -75.5717 H         1 UNK         0.0814 
     99 H99       -72.9016   21.7930  -74.9762 H         1 UNK         0.0814 
    100 H100      -72.4075   21.0811  -76.5099 H         1 UNK         0.0814 
    101 H101      -74.7106   23.8267  -76.4272 H         1 UNK         0.3105 
    102 H102      -76.5919   23.1448  -78.5422 H         1 UNK         0.0547 
    103 H103      -76.7246   20.7771  -79.1740 H         1 UNK         0.0837 
    104 H104      -76.7089   20.2665  -77.4953 H         1 UNK         0.0837 
    105 H105      -78.0874   21.1602  -78.1364 H         1 UNK         0.0837 
    106 H106      -77.2653   23.8543  -76.5557 H         1 UNK         0.3020 
    107 H107      -78.1555   23.2639  -74.0380 H         1 UNK         0.1245 
    108 H108      -76.6141   21.6917  -72.6467 H         1 UNK         0.0781 
    109 H109      -77.2091   23.1301  -71.9370 H         1 UNK         0.0781 
    110 H110      -74.0919   24.3891  -70.3104 H         1 UNK         0.0836 
    111 H111      -75.6285   23.6127  -70.0522 H         1 UNK         0.0836 
    112 H112      -75.6322   24.8241  -74.3789 H         1 UNK         0.3022 
    113 H113      -75.8572   27.1544  -74.5859 H         1 UNK         0.0747 
    114 H114      -75.6839   26.0032  -76.8325 H         1 UNK         0.0793 
    115 H115      -77.2730   26.6091  -77.2839 H         1 UNK         0.0793 
    116 H116      -75.9253   27.7155  -77.0870 H         1 UNK         0.0793 
    117 H117      -78.5748   27.7635  -74.5954 H         1 UNK         0.3047 
    118 H118      -78.8070   30.3609  -73.8934 H         1 UNK         0.0822 
    119 H119      -79.4510   32.3081  -75.3372 H         1 UNK         0.0807 
    120 H120      -78.4319   31.6823  -76.6338 H         1 UNK         0.0807 
    121 H121      -77.7125   32.1945  -75.1157 H         1 UNK         0.0807 
    122 H122      -80.6238   29.3768  -74.6915 H         1 UNK         0.2946 
    123 H123      -82.4231   29.0981  -76.8055 H         1 UNK         0.1144 
    124 H124      -82.5276   27.0345  -78.2368 H         1 UNK         0.0793 
    125 H125      -80.7659   26.9653  -78.2637 H         1 UNK         0.0793 
    126 H126      -81.6112   28.3169  -79.0085 H         1 UNK         0.0793 
    127 H127      -80.9436   26.7375  -75.6855 H         1 UNK         0.2896 
@<TRIPOS>BOND
     1    1    2 1    
     2    1   67 1    
     3    1   68 1    
     4    1   69 1    
     5    2    3 2    
     6    2    4 am   BACKBONE|DICT|INTERRES
     7    4    5 1    
     8    4   70 1    
     9    5    6 1    
    10    5   65 1    
    11    5   71 1    
    12    6    7 1    
    13    6   72 1    
    14    6   73 1    
    15    7    8 1    
    16    8    9 1    
    17    8   74 1    
    18    8   75 1    
    19    9   10 ar   
    20    9   14 ar   
    21   10   11 ar   
    22   10   76 1    
    23   11   12 ar   
    24   11   48 1    
    25   12   13 ar   
    26   12   77 1    
    27   13   14 ar   
    28   13   15 1    
    29   14   78 1    
    30   15   16 1    
    31   15   79 1    
    32   15   80 1    
    33   16   17 1    
    34   17   18 1    
    35   17   81 1    
    36   17   82 1    
    37   18   19 1    
    38   18   22 1    
    39   18   83 1    
    40   19   20 am   BACKBONE|DICT|INTERRES
    41   19   21 2    
    42   20   84 1    
    43   20   85 1    
    44   22   23 am   BACKBONE|DICT|INTERRES
    45   22   86 1    
    46   23   24 2    
    47   23   25 1    
    48   25   26 1    
    49   25   27 1    
    50   25   87 1    
    51   26   88 1    
    52   26   89 1    
    53   26   90 1    
    54   27   28 am   BACKBONE|DICT|INTERRES
    55   27   91 1    
    56   28   29 2    
    57   28   30 1    
    58   30   31 1    
    59   30   32 1    
    60   30   92 1    
    61   31   93 1    
    62   31   94 1    
    63   31   95 1    
    64   32   33 am   BACKBONE|DICT|INTERRES
    65   32   96 1    
    66   33   34 2    
    67   33   35 1    
    68   35   36 1    
    69   35   37 1    
    70   35   97 1    
    71   36   98 1    
    72   36   99 1    
    73   36  100 1    
    74   37   38 am   BACKBONE|DICT|INTERRES
    75   37  101 1    
    76   38   39 2    
    77   38   40 1    
    78   40   41 1    
    79   40   42 1    
    80   40  102 1    
    81   41  103 1    
    82   41  104 1    
    83   41  105 1    
    84   42   43 am   BACKBONE|DICT|INTERRES
    85   42  106 1    
    86   43   44 2    
    87   43   45 1    
    88   45   46 1    
    89   45   49 1    
    90   45  107 1    
    91   46   47 1    
    92   46  108 1    
    93   46  109 1    
    94   47   48 1    
    95   48  110 1    
    96   48  111 1    
    97   49   50 am   BACKBONE|DICT|INTERRES
    98   49  112 1    
    99   50   51 2    
   100   50   52 1    
   101   52   53 1    
   102   52   54 1    
   103   52  113 1    
   104   53  114 1    
   105   53  115 1    
   106   53  116 1    
   107   54   55 am   BACKBONE|DICT|INTERRES
   108   54  117 1    
   109   55   56 2    
   110   55   57 1    
   111   57   58 1    
   112   57   59 1    
   113   57  118 1    
   114   58  119 1    
   115   58  120 1    
   116   58  121 1    
   117   59   60 am   BACKBONE|DICT|INTERRES
   118   59  122 1    
   119   60   61 2    
   120   60   62 1    
   121   62   63 1    
   122   62   64 1    
   123   62  123 1    
   124   63  124 1    
   125   63  125 1    
   126   63  126 1    
   127   64   65 am   BACKBONE|DICT|INTERRES
   128   64  127 1    
   129   65   66 2    
@<TRIPOS>SUBSTRUCTURE
     1 UNK         1 GROUP             0       ****    0 ROOT    
