@<TRIPOS>MOLECULE
3R135
127   129    1
SMALL
USER_CHARGES


@<TRIPOS>ATOM
      1 CA        -80.2256   23.7537  -71.2629 C.3       0 UNK        -0.1998 
      2 C         -80.7626   24.3625  -72.5491 C.2       0 UNK         0.4909 
      3 O         -81.0993   23.6264  -73.4769 O.2       0 UNK        -0.5240 
      4 N         -80.8332   25.7003  -72.6027 N.am      1 UNK        -0.4739 
      5 CA        -81.2856   26.5347  -73.7240 C.3       1 UNK         0.0864 
      6 C6        -81.0731   28.0373  -73.4115 C.3       11 UNK        -0.0881 
      7 S7        -81.9971   28.6705  -71.9702 S.3       11 UNK        -0.2682 
      8 C8        -80.8292   28.4804  -70.5699 C.3       11 UNK         0.0289 
      9 C9        -79.4281   29.0784  -70.7382 C.ar      11 UNK        -0.0687 
     10 C10       -79.1340   30.0881  -71.6640 C.ar      11 UNK        -0.0823 
     11 C11       -77.8298   30.5718  -71.7997 C.ar      11 UNK        -0.0830 
     12 C12       -76.8260   30.0916  -70.9553 C.ar      11 UNK        -0.1021 
     13 C13       -77.0973   29.0906  -70.0141 C.ar      11 UNK        -0.0753 
     14 C14       -78.4018   28.5955  -69.9190 C.ar      11 UNK        -0.0933 
     15 C15       -76.0337   28.5014  -69.0806 C.3       11 UNK         0.0166 
     16 S16       -74.3080   29.0373  -69.3583 S.3       11 UNK        -0.2615 
     17 C17       -73.9185   28.2233  -70.9446 C.3       11 UNK        -0.0865 
     18 CA        -72.5703   28.7154  -71.5387 C.3       10 UNK         0.0862 
     19 C         -71.3695   27.8769  -71.0163 C.2       10 UNK         0.5551 
     20 N         -70.8652   28.1907  -69.8312 N.am      10 UNK        -0.7319 
     21 O         -70.9165   26.9285  -71.6557 O.2       10 UNK        -0.5018 
     22 N         -72.6327   28.7738  -73.0053 N.am      10 UNK        -0.4509 
     23 C         -71.7418   29.3932  -73.7877 C.2       10 UNK         0.4899 
     24 O         -70.7794   30.0346  -73.3622 O.2       10 UNK        -0.4839 
     25 CA        -71.9633   29.2467  -75.2987 C.3       9 UNK         0.0222 
     26 CB        -70.9477   30.0371  -76.1469 C.3       9 UNK        -0.1966 
     27 N         -71.9082   27.8295  -75.6551 N.am      9 UNK        -0.4218 
     28 C         -72.7262   27.2342  -76.5285 C.2       9 UNK         0.5020 
     29 O         -73.5928   27.8335  -77.1716 O.2       9 UNK        -0.5274 
     30 CA        -72.5559   25.7191  -76.7233 C.3       8 UNK         0.0270 
     31 CB        -72.5650   24.9352  -75.3949 C.3       8 UNK        -0.1976 
     32 N         -73.6492   25.2604  -77.5713 N.am      8 UNK        -0.4313 
     33 C         -73.6472   24.2187  -78.4065 C.2       8 UNK         0.5041 
     34 O         -72.6888   23.4565  -78.5428 O.2       8 UNK        -0.5577 
     35 CA        -74.9320   23.9705  -79.2245 C.3       7 UNK         0.0284 
     36 CB        -75.5731   22.6341  -78.8165 C.3       7 UNK        -0.1958 
     37 N         -75.9322   25.0378  -79.0847 N.am      7 UNK        -0.4454 
     38 C         -75.8788   26.2185  -79.7178 C.2       7 UNK         0.5089 
     39 O         -75.0024   26.5161  -80.5295 O.2       7 UNK        -0.5125 
     40 CA        -76.9442   27.2589  -79.3474 C.3       6 UNK         0.0408 
     41 CB        -78.3365   26.8737  -79.8754 C.3       6 UNK        -0.1791 
     42 N         -76.9654   27.4689  -77.8928 N.am      6 UNK        -0.4762 
     43 C         -76.7791   28.6648  -77.3096 C.2       6 UNK         0.5007 
     44 O         -76.7390   29.7207  -77.9444 O.2       6 UNK        -0.5032 
     45 CA        -76.5653   28.7183  -75.7806 C.3       5 UNK         0.0783 
     46 C46       -77.3979   29.8396  -75.0835 C.3       11 UNK        -0.0857 
     47 S47       -76.3383   30.9676  -74.1157 S.3       11 UNK        -0.2512 
     48 C48       -77.4953   31.6126  -72.8597 C.3       11 UNK         0.0225 
     49 N         -76.7717   27.4188  -75.1327 N.am      5 UNK        -0.4615 
     50 C         -75.9261   26.8753  -74.2503 C.2       4 UNK         0.5053 
     51 O         -74.8051   27.3210  -74.0150 O.2       4 UNK        -0.5105 
     52 CA        -76.4011   25.6470  -73.4630 C.3       4 UNK         0.0263 
     53 CB        -77.1818   26.1002  -72.2194 C.3       4 UNK        -0.1981 
     54 N         -77.2447   24.7466  -74.2512 N.am      4 UNK        -0.4224 
     55 C         -76.8735   23.5268  -74.6676 C.2       3 UNK         0.4895 
     56 O         -75.7396   23.0708  -74.5200 O.2       3 UNK        -0.5091 
     57 CA        -77.9418   22.6346  -75.3313 C.3       3 UNK         0.0250 
     58 CB        -78.3764   21.5124  -74.3743 C.3       3 UNK        -0.1996 
     59 N         -79.1292   23.3646  -75.7784 N.am      3 UNK        -0.4254 
     60 C         -79.1630   24.1360  -76.8729 C.2       2 UNK         0.5004 
     61 O         -78.1967   24.3028  -77.6160 O.2       2 UNK        -0.5226 
     62 CA        -80.4658   24.9146  -77.1387 C.3       2 UNK         0.0269 
     63 CB        -81.4495   24.0616  -77.9536 C.3       2 UNK        -0.1926 
     64 N         -81.1205   25.3968  -75.9158 N.am      2 UNK        -0.4687 
     65 C         -80.5213   26.1878  -75.0160 C.2       1 UNK         0.5165 
     66 O         -79.3684   26.5993  -75.1507 O.2       1 UNK        -0.5079 
     67 H67       -80.9241   23.0100  -70.8805 H         1 UNK         0.0900 
     68 H68       -79.2718   23.2615  -71.4495 H         1 UNK         0.0900 
     69 H69       -80.0737   24.5044  -70.4876 H         1 UNK         0.0900 
     70 H70       -80.5385   26.2266  -71.7948 H         1 UNK         0.2959 
     71 H71       -82.3499   26.3500  -73.8816 H         1 UNK         0.1079 
     72 H72       -80.0112   28.2404  -73.2804 H         1 UNK         0.0837 
     73 H73       -81.3811   28.6428  -74.2666 H         1 UNK         0.0837 
     74 H74       -81.2857   28.9389  -69.6918 H         1 UNK         0.0685 
     75 H75       -80.7457   27.4177  -70.3409 H         1 UNK         0.0685 
     76 H76       -79.9126   30.4843  -72.3002 H         1 UNK         0.1434 
     77 H77       -75.8299   30.4964  -71.0600 H         1 UNK         0.1329 
     78 H78       -78.6200   27.8215  -69.1954 H         1 UNK         0.1335 
     79 H79       -76.3013   28.7621  -68.0557 H         1 UNK         0.0680 
     80 H80       -76.0679   27.4124  -69.1381 H         1 UNK         0.0680 
     81 H81       -73.9383   27.1383  -70.8229 H         1 UNK         0.1032 
     82 H82       -74.7325   28.4515  -71.6323 H         1 UNK         0.1032 
     83 H83       -72.4096   29.7470  -71.2176 H         1 UNK         0.0461 
     84 H84       -71.2570   28.9448  -69.2882 H         1 UNK         0.3453 
     85 H85       -70.0947   27.6538  -69.4650 H         1 UNK         0.3453 
     86 H86       -73.3834   28.2391  -73.4422 H         1 UNK         0.2984 
     87 H87       -72.9597   29.6467  -75.5001 H         1 UNK         0.0554 
     88 H88       -70.9698   31.0981  -75.8951 H         1 UNK         0.0847 
     89 H89       -71.1715   29.9528  -77.2104 H         1 UNK         0.0847 
     90 H90       -69.9281   29.6832  -75.9897 H         1 UNK         0.0847 
     91 H91       -71.2469   27.2684  -75.1353 H         1 UNK         0.3141 
     92 H92       -71.6070   25.5569  -77.2384 H         1 UNK         0.0743 
     93 H93       -73.4925   25.0884  -74.8434 H         1 UNK         0.0784 
     94 H94       -72.4630   23.8640  -75.5699 H         1 UNK         0.0784 
     95 H95       -71.7419   25.2303  -74.7437 H         1 UNK         0.0784 
     96 H96       -74.4273   25.9064  -77.6069 H         1 UNK         0.3213 
     97 H97       -74.6413   23.9017  -80.2750 H         1 UNK         0.0855 
     98 H98       -75.8132   22.6185  -77.7537 H         1 UNK         0.0814 
     99 H99       -74.8960   21.8007  -79.0085 H         1 UNK         0.0814 
    100 H100      -76.4907   22.4427  -79.3732 H         1 UNK         0.0814 
    101 H101      -76.7336   24.8264  -78.4892 H         1 UNK         0.3105 
    102 H102      -76.6577   28.1823  -79.8552 H         1 UNK         0.0547 
    103 H103      -78.3404   26.8597  -80.9659 H         1 UNK         0.0837 
    104 H104      -78.6504   25.8854  -79.5470 H         1 UNK         0.0837 
    105 H105      -79.0932   27.5915  -79.5591 H         1 UNK         0.0837 
    106 H106      -76.9881   26.6454  -77.3085 H         1 UNK         0.3020 
    107 H107      -75.5069   28.9771  -75.7064 H         1 UNK         0.1245 
    108 H108      -78.1537   29.4075  -74.4263 H         1 UNK         0.0781 
    109 H109      -77.9578   30.4527  -75.7920 H         1 UNK         0.0781 
    110 H110      -78.3967   31.9784  -73.3539 H         1 UNK         0.0836 
    111 H111      -77.0404   32.4770  -72.3741 H         1 UNK         0.0836 
    112 H112      -77.7125   27.0342  -75.2187 H         1 UNK         0.3022 
    113 H113      -75.5086   25.1213  -73.1168 H         1 UNK         0.0747 
    114 H114      -77.5014   25.2502  -71.6173 H         1 UNK         0.0793 
    115 H115      -76.5599   26.7290  -71.5831 H         1 UNK         0.0793 
    116 H116      -78.0657   26.6817  -72.4836 H         1 UNK         0.0793 
    117 H117      -78.1753   25.0775  -74.4743 H         1 UNK         0.3047 
    118 H118      -77.4802   22.1661  -76.2020 H         1 UNK         0.0822 
    119 H119      -79.0784   20.8311  -74.8553 H         1 UNK         0.0807 
    120 H120      -78.8544   21.9070  -73.4779 H         1 UNK         0.0807 
    121 H121      -77.5198   20.9185  -74.0524 H         1 UNK         0.0807 
    122 H122      -79.9479   23.3270  -75.1782 H         1 UNK         0.2946 
    123 H123      -80.2016   25.7933  -77.7300 H         1 UNK         0.1144 
    124 H124      -82.3335   24.6343  -78.2345 H         1 UNK         0.0793 
    125 H125      -81.7796   23.1832  -77.3974 H         1 UNK         0.0793 
    126 H126      -80.9872   23.7090  -78.8769 H         1 UNK         0.0793 
    127 H127      -82.0462   25.0424  -75.7199 H         1 UNK         0.2896 
@<TRIPOS>BOND
     1    1    2 1    
     2    1   67 1    
     3    1   68 1    
     4    1   69 1    
     5    2    3 2    
     6    2    4 am   BACKBONE|DICT|INTERRES
     7    4    5 1    
     8    4   70 1    
     9    5    6 1    
    10    5   65 1    
    11    5   71 1    
    12    6    7 1    
    13    6   72 1    
    14    6   73 1    
    15    7    8 1    
    16    8    9 1    
    17    8   74 1    
    18    8   75 1    
    19    9   10 ar   
    20    9   14 ar   
    21   10   11 ar   
    22   10   76 1    
    23   11   12 ar   
    24   11   48 1    
    25   12   13 ar   
    26   12   77 1    
    27   13   14 ar   
    28   13   15 1    
    29   14   78 1    
    30   15   16 1    
    31   15   79 1    
    32   15   80 1    
    33   16   17 1    
    34   17   18 1    
    35   17   81 1    
    36   17   82 1    
    37   18   19 1    
    38   18   22 1    
    39   18   83 1    
    40   19   20 am   BACKBONE|DICT|INTERRES
    41   19   21 2    
    42   20   84 1    
    43   20   85 1    
    44   22   23 am   BACKBONE|DICT|INTERRES
    45   22   86 1    
    46   23   24 2    
    47   23   25 1    
    48   25   26 1    
    49   25   27 1    
    50   25   87 1    
    51   26   88 1    
    52   26   89 1    
    53   26   90 1    
    54   27   28 am   BACKBONE|DICT|INTERRES
    55   27   91 1    
    56   28   29 2    
    57   28   30 1    
    58   30   31 1    
    59   30   32 1    
    60   30   92 1    
    61   31   93 1    
    62   31   94 1    
    63   31   95 1    
    64   32   33 am   BACKBONE|DICT|INTERRES
    65   32   96 1    
    66   33   34 2    
    67   33   35 1    
    68   35   36 1    
    69   35   37 1    
    70   35   97 1    
    71   36   98 1    
    72   36   99 1    
    73   36  100 1    
    74   37   38 am   BACKBONE|DICT|INTERRES
    75   37  101 1    
    76   38   39 2    
    77   38   40 1    
    78   40   41 1    
    79   40   42 1    
    80   40  102 1    
    81   41  103 1    
    82   41  104 1    
    83   41  105 1    
    84   42   43 am   BACKBONE|DICT|INTERRES
    85   42  106 1    
    86   43   44 2    
    87   43   45 1    
    88   45   46 1    
    89   45   49 1    
    90   45  107 1    
    91   46   47 1    
    92   46  108 1    
    93   46  109 1    
    94   47   48 1    
    95   48  110 1    
    96   48  111 1    
    97   49   50 am   BACKBONE|DICT|INTERRES
    98   49  112 1    
    99   50   51 2    
   100   50   52 1    
   101   52   53 1    
   102   52   54 1    
   103   52  113 1    
   104   53  114 1    
   105   53  115 1    
   106   53  116 1    
   107   54   55 am   BACKBONE|DICT|INTERRES
   108   54  117 1    
   109   55   56 2    
   110   55   57 1    
   111   57   58 1    
   112   57   59 1    
   113   57  118 1    
   114   58  119 1    
   115   58  120 1    
   116   58  121 1    
   117   59   60 am   BACKBONE|DICT|INTERRES
   118   59  122 1    
   119   60   61 2    
   120   60   62 1    
   121   62   63 1    
   122   62   64 1    
   123   62  123 1    
   124   63  124 1    
   125   63  125 1    
   126   63  126 1    
   127   64   65 am   BACKBONE|DICT|INTERRES
   128   64  127 1    
   129   65   66 2    
@<TRIPOS>SUBSTRUCTURE
     1 UNK         1 GROUP             0       ****    0 ROOT    
