@<TRIPOS>MOLECULE
3R135
127   129    1
SMALL
USER_CHARGES


@<TRIPOS>ATOM
      1 CA        -82.5679   21.8061  -73.2659 C.3       0 UNK        -0.1998 
      2 C         -81.8003   23.1041  -73.0692 C.2       0 UNK         0.4909 
      3 O         -80.6044   23.1530  -73.3546 O.2       0 UNK        -0.5240 
      4 N         -82.4837   24.1576  -72.5991 N.am      1 UNK        -0.4739 
      5 CA        -81.9358   25.4924  -72.3167 C.3       1 UNK         0.0864 
      6 C6        -80.9845   25.4884  -71.0877 C.3       11 UNK        -0.0881 
      7 S7        -81.0656   27.0471  -70.1470 S.3       11 UNK        -0.2682 
      8 C8        -79.3293   27.2629  -69.6216 C.3       11 UNK         0.0289 
      9 C9        -78.4261   27.9804  -70.6259 C.ar      11 UNK        -0.0687 
     10 C10       -78.9153   28.9772  -71.4816 C.ar      11 UNK        -0.0823 
     11 C11       -78.0544   29.6825  -72.3290 C.ar      11 UNK        -0.0830 
     12 C12       -76.6868   29.3987  -72.2991 C.ar      11 UNK        -0.1021 
     13 C13       -76.1850   28.3919  -71.4727 C.ar      11 UNK        -0.0753 
     14 C14       -77.0573   27.6875  -70.6380 C.ar      11 UNK        -0.0933 
     15 C15       -74.6981   28.0810  -71.4914 C.3       11 UNK         0.0166 
     16 S16       -73.7697   29.3113  -70.5235 S.3       11 UNK        -0.2615 
     17 C17       -72.2093   29.3803  -71.4650 C.3       11 UNK        -0.0865 
     18 CA        -72.2779   30.3821  -72.6588 C.3       10 UNK         0.0862 
     19 C         -71.9267   31.8544  -72.2762 C.2       10 UNK         0.5551 
     20 N         -71.3965   32.6564  -73.1919 N.am      10 UNK        -0.7319 
     21 O         -72.1548   32.2883  -71.1498 O.2       10 UNK        -0.5018 
     22 N         -71.5785   29.8615  -73.8448 N.am      10 UNK        -0.4509 
     23 C         -70.2642   29.6306  -73.9505 C.2       10 UNK         0.4899 
     24 O         -69.4465   29.8742  -73.0619 O.2       10 UNK        -0.4839 
     25 CA        -69.8099   28.9509  -75.2556 C.3       9 UNK         0.0222 
     26 CB        -68.2805   28.9754  -75.4364 C.3       9 UNK        -0.1966 
     27 N         -70.2745   27.5623  -75.2784 N.am      9 UNK        -0.4218 
     28 C         -71.5211   27.1747  -75.5762 C.2       9 UNK         0.5020 
     29 O         -72.4021   27.9438  -75.9682 O.2       9 UNK        -0.5274 
     30 CA        -71.8454   25.7022  -75.3019 C.3       8 UNK         0.0270 
     31 CB        -72.2706   25.5222  -73.8338 C.3       8 UNK        -0.1976 
     32 N         -72.9206   25.2263  -76.1723 N.am      8 UNK        -0.4313 
     33 C         -72.7172   24.6181  -77.3469 C.2       8 UNK         0.5041 
     34 O         -71.6018   24.4452  -77.8426 O.2       8 UNK        -0.5577 
     35 CA        -73.9482   24.0572  -78.0751 C.3       7 UNK         0.0284 
     36 CB        -74.4108   22.7490  -77.4123 C.3       7 UNK        -0.1958 
     37 N         -75.0729   24.9900  -78.1582 N.am      7 UNK        -0.4454 
     38 C         -75.1203   26.0446  -78.9838 C.2       7 UNK         0.5089 
     39 O         -74.1861   26.3934  -79.7067 O.2       7 UNK        -0.5125 
     40 CA        -76.4485   26.8195  -79.0488 C.3       6 UNK         0.0408 
     41 CB        -77.4733   26.0717  -79.9169 C.3       6 UNK        -0.1791 
     42 N         -77.0198   27.0655  -77.7263 N.am      6 UNK        -0.4762 
     43 C         -76.5498   27.9722  -76.8586 C.2       6 UNK         0.5007 
     44 O         -75.6385   28.7576  -77.1203 O.2       6 UNK        -0.5032 
     45 CA        -77.1965   27.9958  -75.4581 C.3       5 UNK         0.0783 
     46 C46       -78.4368   28.9293  -75.4140 C.3       11 UNK        -0.0857 
     47 S47       -77.9900   30.6412  -74.9740 S.3       11 UNK        -0.2512 
     48 C48       -78.6079   30.7614  -73.2571 C.3       11 UNK         0.0225 
     49 N         -77.5022   26.6564  -74.9454 N.am      5 UNK        -0.4615 
     50 C         -76.5980   25.6890  -74.7363 C.2       4 UNK         0.5053 
     51 O         -75.3909   25.8198  -74.9277 O.2       4 UNK        -0.5105 
     52 CA        -77.1352   24.3218  -74.2876 C.3       4 UNK         0.0263 
     53 CB        -77.3754   24.3165  -72.7711 C.3       4 UNK        -0.1981 
     54 N         -78.3600   23.9471  -75.0007 N.am      4 UNK        -0.4224 
     55 C         -78.4249   23.7518  -76.3273 C.2       3 UNK         0.4895 
     56 O         -77.4481   23.7925  -77.0740 O.2       3 UNK        -0.5091 
     57 CA        -79.8180   23.5470  -76.9396 C.3       3 UNK         0.0250 
     58 CB        -80.3239   22.1132  -76.7152 C.3       3 UNK        -0.1996 
     59 N         -80.7849   24.5191  -76.4260 N.am      3 UNK        -0.4254 
     60 C         -80.7295   25.8371  -76.6722 C.2       2 UNK         0.5004 
     61 O         -79.8913   26.3619  -77.4047 O.2       2 UNK        -0.5226 
     62 CA        -81.7634   26.7266  -75.9610 C.3       2 UNK         0.0269 
     63 CB        -83.0144   26.9031  -76.8358 C.3       2 UNK        -0.1926 
     64 N         -82.1564   26.2213  -74.6417 N.am      2 UNK        -0.4687 
     65 C         -81.3316   26.1328  -73.5873 C.2       1 UNK         0.5165 
     66 O         -80.1479   26.4706  -73.6282 O.2       1 UNK        -0.5079 
     67 H67       -82.0785   20.9975  -72.7238 H         1 UNK         0.0900 
     68 H68       -83.5945   21.8805  -72.9079 H         1 UNK         0.0900 
     69 H69       -82.5943   21.5408  -74.3222 H         1 UNK         0.0900 
     70 H70       -83.4689   24.0483  -72.3996 H         1 UNK         0.2959 
     71 H71       -82.8036   26.1040  -72.0631 H         1 UNK         0.1079 
     72 H72       -79.9584   25.2562  -71.3690 H         1 UNK         0.0837 
     73 H73       -81.2760   24.6987  -70.3935 H         1 UNK         0.0837 
     74 H74       -79.3278   27.8463  -68.7002 H         1 UNK         0.0685 
     75 H75       -78.9149   26.2870  -69.3634 H         1 UNK         0.0685 
     76 H76       -79.9688   29.2178  -71.4800 H         1 UNK         0.1434 
     77 H77       -76.0093   29.9541  -72.9330 H         1 UNK         0.1329 
     78 H78       -76.6647   26.9246  -69.9796 H         1 UNK         0.1335 
     79 H79       -74.3530   28.0767  -72.5269 H         1 UNK         0.0680 
     80 H80       -74.5009   27.0830  -71.0969 H         1 UNK         0.0680 
     81 H81       -71.9897   28.3703  -71.8152 H         1 UNK         0.1032 
     82 H82       -71.3900   29.6319  -70.7888 H         1 UNK         0.1032 
     83 H83       -73.3168   30.4355  -72.9864 H         1 UNK         0.0461 
     84 H84       -71.2111   32.3158  -74.1215 H         1 UNK         0.3453 
     85 H85       -71.1759   33.6091  -72.9478 H         1 UNK         0.3453 
     86 H86       -72.1660   29.5791  -74.6223 H         1 UNK         0.2984 
     87 H87       -70.2535   29.4956  -76.0919 H         1 UNK         0.0554 
     88 H88       -67.9039   29.9991  -75.4249 H         1 UNK         0.0847 
     89 H89       -67.9870   28.5348  -76.3894 H         1 UNK         0.0847 
     90 H90       -67.7666   28.4309  -74.6431 H         1 UNK         0.0847 
     91 H91       -69.6278   26.8711  -74.9252 H         1 UNK         0.3141 
     92 H92       -70.9465   25.1049  -75.4706 H         1 UNK         0.0743 
     93 H93       -73.1283   26.1467  -73.5822 H         1 UNK         0.0784 
     94 H94       -72.5382   24.4869  -73.6218 H         1 UNK         0.0784 
     95 H95       -71.4623   25.7941  -73.1539 H         1 UNK         0.0784 
     96 H96       -73.8713   25.4091  -75.8514 H         1 UNK         0.3213 
     97 H97       -73.6402   23.8170  -79.0953 H         1 UNK         0.0855 
     98 H98       -74.7745   22.9172  -76.3980 H         1 UNK         0.0814 
     99 H99       -73.5931   22.0295  -77.3520 H         1 UNK         0.0814 
    100 H100      -75.2139   22.2796  -77.9808 H         1 UNK         0.0814 
    101 H101      -75.9099   24.7423  -77.6350 H         1 UNK         0.3105 
    102 H102      -76.2514   27.7835  -79.5226 H         1 UNK         0.0547 
    103 H103      -77.0806   25.8939  -80.9188 H         1 UNK         0.0837 
    104 H104      -77.7355   25.1022  -79.4917 H         1 UNK         0.0837 
    105 H105      -78.3936   26.6459  -80.0254 H         1 UNK         0.0837 
    106 H106      -77.8232   26.5058  -77.4578 H         1 UNK         0.3020 
    107 H107      -76.4302   28.3877  -74.7884 H         1 UNK         0.1245 
    108 H108      -79.1580   28.5781  -74.6771 H         1 UNK         0.0781 
    109 H109      -78.9787   28.9317  -76.3620 H         1 UNK         0.0781 
    110 H110      -79.6982   30.7245  -73.2816 H         1 UNK         0.0836 
    111 H111      -78.3423   31.7399  -72.8552 H         1 UNK         0.0836 
    112 H112      -78.4685   26.4780  -74.6881 H         1 UNK         0.3022 
    113 H113      -76.3786   23.5686  -74.5160 H         1 UNK         0.0747 
    114 H114      -77.8211   23.3798  -72.4363 H         1 UNK         0.0793 
    115 H115      -76.4369   24.4466  -72.2308 H         1 UNK         0.0793 
    116 H116      -78.0321   25.1321  -72.4716 H         1 UNK         0.0793 
    117 H117      -79.2079   23.8571  -74.4442 H         1 UNK         0.3047 
    118 H118      -79.7305   23.7056  -78.0169 H         1 UNK         0.0822 
    119 H119      -81.3022   21.9602  -77.1710 H         1 UNK         0.0807 
    120 H120      -80.4024   21.8661  -75.6570 H         1 UNK         0.0807 
    121 H121      -79.6418   21.3899  -77.1641 H         1 UNK         0.0807 
    122 H122      -81.4860   24.1788  -75.7854 H         1 UNK         0.2946 
    123 H123      -81.3035   27.7073  -75.8208 H         1 UNK         0.1144 
    124 H124      -82.7501   27.2993  -77.8175 H         1 UNK         0.0793 
    125 H125      -83.7184   27.6031  -76.3855 H         1 UNK         0.0793 
    126 H126      -83.5343   25.9576  -76.9953 H         1 UNK         0.0793 
    127 H127      -83.1089   25.9006  -74.5401 H         1 UNK         0.2896 
@<TRIPOS>BOND
     1    1    2 1    
     2    1   67 1    
     3    1   68 1    
     4    1   69 1    
     5    2    3 2    
     6    2    4 am   BACKBONE|DICT|INTERRES
     7    4    5 1    
     8    4   70 1    
     9    5    6 1    
    10    5   65 1    
    11    5   71 1    
    12    6    7 1    
    13    6   72 1    
    14    6   73 1    
    15    7    8 1    
    16    8    9 1    
    17    8   74 1    
    18    8   75 1    
    19    9   10 ar   
    20    9   14 ar   
    21   10   11 ar   
    22   10   76 1    
    23   11   12 ar   
    24   11   48 1    
    25   12   13 ar   
    26   12   77 1    
    27   13   14 ar   
    28   13   15 1    
    29   14   78 1    
    30   15   16 1    
    31   15   79 1    
    32   15   80 1    
    33   16   17 1    
    34   17   18 1    
    35   17   81 1    
    36   17   82 1    
    37   18   19 1    
    38   18   22 1    
    39   18   83 1    
    40   19   20 am   BACKBONE|DICT|INTERRES
    41   19   21 2    
    42   20   84 1    
    43   20   85 1    
    44   22   23 am   BACKBONE|DICT|INTERRES
    45   22   86 1    
    46   23   24 2    
    47   23   25 1    
    48   25   26 1    
    49   25   27 1    
    50   25   87 1    
    51   26   88 1    
    52   26   89 1    
    53   26   90 1    
    54   27   28 am   BACKBONE|DICT|INTERRES
    55   27   91 1    
    56   28   29 2    
    57   28   30 1    
    58   30   31 1    
    59   30   32 1    
    60   30   92 1    
    61   31   93 1    
    62   31   94 1    
    63   31   95 1    
    64   32   33 am   BACKBONE|DICT|INTERRES
    65   32   96 1    
    66   33   34 2    
    67   33   35 1    
    68   35   36 1    
    69   35   37 1    
    70   35   97 1    
    71   36   98 1    
    72   36   99 1    
    73   36  100 1    
    74   37   38 am   BACKBONE|DICT|INTERRES
    75   37  101 1    
    76   38   39 2    
    77   38   40 1    
    78   40   41 1    
    79   40   42 1    
    80   40  102 1    
    81   41  103 1    
    82   41  104 1    
    83   41  105 1    
    84   42   43 am   BACKBONE|DICT|INTERRES
    85   42  106 1    
    86   43   44 2    
    87   43   45 1    
    88   45   46 1    
    89   45   49 1    
    90   45  107 1    
    91   46   47 1    
    92   46  108 1    
    93   46  109 1    
    94   47   48 1    
    95   48  110 1    
    96   48  111 1    
    97   49   50 am   BACKBONE|DICT|INTERRES
    98   49  112 1    
    99   50   51 2    
   100   50   52 1    
   101   52   53 1    
   102   52   54 1    
   103   52  113 1    
   104   53  114 1    
   105   53  115 1    
   106   53  116 1    
   107   54   55 am   BACKBONE|DICT|INTERRES
   108   54  117 1    
   109   55   56 2    
   110   55   57 1    
   111   57   58 1    
   112   57   59 1    
   113   57  118 1    
   114   58  119 1    
   115   58  120 1    
   116   58  121 1    
   117   59   60 am   BACKBONE|DICT|INTERRES
   118   59  122 1    
   119   60   61 2    
   120   60   62 1    
   121   62   63 1    
   122   62   64 1    
   123   62  123 1    
   124   63  124 1    
   125   63  125 1    
   126   63  126 1    
   127   64   65 am   BACKBONE|DICT|INTERRES
   128   64  127 1    
   129   65   66 2    
@<TRIPOS>SUBSTRUCTURE
     1 UNK         1 GROUP             0       ****    0 ROOT    
