@<TRIPOS>MOLECULE
3R135
127   129    1
SMALL
USER_CHARGES


@<TRIPOS>ATOM
      1 CA        -81.7551   26.7222  -68.5114 C.3       0 UNK        -0.1998 
      2 C         -82.2557   26.2389  -69.8642 C.2       0 UNK         0.4909 
      3 O         -83.3422   25.6654  -69.9464 O.2       0 UNK        -0.5240 
      4 N         -81.4708   26.4671  -70.9255 N.am      1 UNK        -0.4739 
      5 CA        -81.7869   26.0587  -72.3008 C.3       1 UNK         0.0864 
      6 C6        -80.9691   26.8723  -73.3386 C.3       11 UNK        -0.0881 
      7 S7        -81.6938   28.5171  -73.6461 S.3       11 UNK        -0.2682 
      8 C8        -80.8754   29.5754  -72.4102 C.3       11 UNK         0.0289 
      9 C9        -79.4405   29.9391  -72.7719 C.ar      11 UNK        -0.0687 
     10 C10       -79.1709   30.6854  -73.9251 C.ar      11 UNK        -0.0823 
     11 C11       -77.8698   31.1147  -74.2079 C.ar      11 UNK        -0.0830 
     12 C12       -76.8352   30.7898  -73.3260 C.ar      11 UNK        -0.1021 
     13 C13       -77.0897   30.0412  -72.1742 C.ar      11 UNK        -0.0753 
     14 C14       -78.3920   29.6089  -71.9063 C.ar      11 UNK        -0.0933 
     15 C15       -75.9595   29.7510  -71.2003 C.3       11 UNK         0.0166 
     16 S16       -74.9926   28.3063  -71.7225 S.3       11 UNK        -0.2615 
     17 C17       -73.4589   28.5704  -70.7668 C.3       11 UNK        -0.0865 
     18 CA        -72.3869   29.3536  -71.5719 C.3       10 UNK         0.0862 
     19 C         -71.1482   29.6841  -70.6899 C.2       10 UNK         0.5551 
     20 N         -69.9463   29.2356  -71.0320 N.am      10 UNK        -0.7319 
     21 O         -71.2813   30.3687  -69.6785 O.2       10 UNK        -0.5018 
     22 N         -72.0712   28.6754  -72.8374 N.am      10 UNK        -0.4509 
     23 C         -71.6155   29.2544  -73.9516 C.2       10 UNK         0.4899 
     24 O         -71.3640   30.4563  -74.0412 O.2       10 UNK        -0.4839 
     25 CA        -71.4202   28.3557  -75.1893 C.3       9 UNK         0.0222 
     26 CB        -69.9722   27.8358  -75.2753 C.3       9 UNK        -0.1966 
     27 N         -72.3953   27.2610  -75.3273 N.am      9 UNK        -0.4218 
     28 C         -72.5638   26.1743  -74.5564 C.2       9 UNK         0.5020 
     29 O         -71.8926   25.9314  -73.5525 O.2       9 UNK        -0.5274 
     30 CA        -73.6941   25.2086  -74.9437 C.3       8 UNK         0.0270 
     31 CB        -75.0255   25.6745  -74.3323 C.3       8 UNK        -0.1976 
     32 N         -73.8567   25.0558  -76.3884 N.am      8 UNK        -0.4313 
     33 C         -72.9801   24.4676  -77.2133 C.2       8 UNK         0.5041 
     34 O         -71.9075   23.9839  -76.8498 O.2       8 UNK        -0.5577 
     35 CA        -73.3734   24.4041  -78.6964 C.3       7 UNK         0.0284 
     36 CB        -74.3553   23.2467  -78.9486 C.3       7 UNK        -0.1958 
     37 N         -73.9773   25.6626  -79.1368 N.am      7 UNK        -0.4454 
     38 C         -73.2902   26.6978  -79.6370 C.2       7 UNK         0.5089 
     39 O         -72.0767   26.6778  -79.8451 O.2       7 UNK        -0.5125 
     40 CA        -74.0827   27.9766  -79.9718 C.3       6 UNK         0.0408 
     41 CB        -74.4667   27.9912  -81.4599 C.3       6 UNK        -0.1791 
     42 N         -75.2901   28.1685  -79.1620 N.am      6 UNK        -0.4762 
     43 C         -75.2951   28.4047  -77.8416 C.2       6 UNK         0.5007 
     44 O         -74.2755   28.4481  -77.1522 O.2       6 UNK        -0.5032 
     45 CA        -76.6803   28.5487  -77.1699 C.3       5 UNK         0.0783 
     46 C46       -77.2793   29.9627  -77.3792 C.3       11 UNK        -0.0857 
     47 S47       -76.3430   31.2866  -76.5427 S.3       11 UNK        -0.2512 
     48 C48       -77.5916   31.9951  -75.4200 C.3       11 UNK         0.0225 
     49 N         -77.6459   27.5159  -77.5776 N.am      5 UNK        -0.4615 
     50 C         -77.4356   26.1935  -77.6012 C.2       4 UNK         0.5053 
     51 O         -76.3413   25.6620  -77.4130 O.2       4 UNK        -0.5105 
     52 CA        -78.6460   25.3037  -77.9222 C.3       4 UNK         0.0263 
     53 CB        -78.6438   24.9267  -79.4123 C.3       4 UNK        -0.1981 
     54 N         -78.6468   24.0797  -77.1140 N.am      4 UNK        -0.4224 
     55 C         -78.7017   24.0554  -75.7756 C.2       3 UNK         0.4895 
     56 O         -78.8016   25.0644  -75.0709 O.2       3 UNK        -0.5091 
     57 CA        -78.6321   22.6775  -75.1070 C.3       3 UNK         0.0250 
     58 CB        -77.1907   22.1393  -75.0597 C.3       3 UNK        -0.1996 
     59 N         -79.1484   22.8342  -73.7537 N.am      3 UNK        -0.4254 
     60 C         -79.8579   21.9412  -73.0601 C.2       2 UNK         0.5004 
     61 O         -80.0405   20.7773  -73.4195 O.2       2 UNK        -0.5226 
     62 CA        -80.4934   22.4414  -71.7483 C.3       2 UNK         0.0269 
     63 CB        -79.6153   22.0607  -70.5452 C.3       2 UNK        -0.1926 
     64 N         -80.7501   23.8894  -71.7176 N.am      2 UNK        -0.4687 
     65 C         -81.6189   24.5372  -72.5122 C.2       1 UNK         0.5165 
     66 O         -82.2913   23.9760  -73.3785 O.2       1 UNK        -0.5079 
     67 H67       -81.6499   25.8802  -67.8278 H         1 UNK         0.0900 
     68 H68       -82.4657   27.4259  -68.0787 H         1 UNK         0.0900 
     69 H69       -80.7888   27.2206  -68.5872 H         1 UNK         0.0900 
     70 H70       -80.5880   26.9394  -70.7974 H         1 UNK         0.2959 
     71 H71       -82.8474   26.2583  -72.4738 H         1 UNK         0.1079 
     72 H72       -79.9203   26.9632  -73.0495 H         1 UNK         0.0837 
     73 H73       -80.9670   26.3686  -74.3072 H         1 UNK         0.0837 
     74 H74       -80.9278   29.1031  -71.4294 H         1 UNK         0.0685 
     75 H75       -81.4484   30.4996  -72.3236 H         1 UNK         0.0685 
     76 H76       -79.9847   30.9567  -74.5839 H         1 UNK         0.1434 
     77 H77       -75.8300   31.1344  -73.5290 H         1 UNK         0.1329 
     78 H78       -78.5921   29.0478  -71.0039 H         1 UNK         0.1335 
     79 H79       -76.3487   29.5810  -70.1952 H         1 UNK         0.0680 
     80 H80       -75.3080   30.6240  -71.1353 H         1 UNK         0.0680 
     81 H81       -73.7044   29.0874  -69.8369 H         1 UNK         0.1032 
     82 H82       -73.0695   27.5942  -70.4720 H         1 UNK         0.1032 
     83 H83       -72.8234   30.3211  -71.8274 H         1 UNK         0.0461 
     84 H84       -69.1502   29.4593  -70.4559 H         1 UNK         0.3453 
     85 H85       -69.8320   28.6752  -71.8611 H         1 UNK         0.3453 
     86 H86       -72.1892   27.6668  -72.8522 H         1 UNK         0.2984 
     87 H87       -71.5880   28.9935  -76.0586 H         1 UNK         0.0554 
     88 H88       -69.8119   27.2623  -76.1884 H         1 UNK         0.0847 
     89 H89       -69.7145   27.1978  -74.4296 H         1 UNK         0.0847 
     90 H90       -69.2620   28.6637  -75.2835 H         1 UNK         0.0847 
     91 H91       -73.0719   27.4110  -76.0727 H         1 UNK         0.3141 
     92 H92       -73.4523   24.2264  -74.5325 H         1 UNK         0.0743 
     93 H93       -74.9715   25.6785  -73.2432 H         1 UNK         0.0784 
     94 H94       -75.2860   26.6847  -74.6509 H         1 UNK         0.0784 
     95 H95       -75.8492   25.0196  -74.6129 H         1 UNK         0.0784 
     96 H96       -74.7452   25.3716  -76.7784 H         1 UNK         0.3213 
     97 H97       -72.4687   24.2089  -79.2768 H         1 UNK         0.0855 
     98 H98       -75.2846   23.3684  -78.3909 H         1 UNK         0.0814 
     99 H99       -73.9178   22.2941  -78.6468 H         1 UNK         0.0814 
    100 H100      -74.6082   23.1662  -80.0058 H         1 UNK         0.0814 
    101 H101      -74.9604   25.7902  -78.9266 H         1 UNK         0.3105 
    102 H102      -73.4217   28.8256  -79.7844 H         1 UNK         0.0547 
    103 H103      -75.1491   27.1778  -81.7096 H         1 UNK         0.0837 
    104 H104      -74.9445   28.9304  -81.7388 H         1 UNK         0.0837 
    105 H105      -73.5840   27.8802  -82.0915 H         1 UNK         0.0837 
    106 H106      -76.1766   28.1200  -79.6436 H         1 UNK         0.3020 
    107 H107      -76.5240   28.4069  -76.0978 H         1 UNK         0.1245 
    108 H108      -78.3053   29.9833  -77.0080 H         1 UNK         0.0781 
    109 H109      -77.3460   30.2038  -78.4418 H         1 UNK         0.0781 
    110 H110      -77.2297   32.9620  -75.0676 H         1 UNK         0.0836 
    111 H111      -78.5057   32.2012  -75.9791 H         1 UNK         0.0836 
    112 H112      -78.5796   27.8475  -77.7708 H         1 UNK         0.3022 
    113 H113      -79.5619   25.8538  -77.6961 H         1 UNK         0.0747 
    114 H114      -78.6689   25.8171  -80.0421 H         1 UNK         0.0793 
    115 H115      -79.5151   24.3249  -79.6715 H         1 UNK         0.0793 
    116 H116      -77.7513   24.3608  -79.6840 H         1 UNK         0.0793 
    117 H117      -78.5371   23.2094  -77.6135 H         1 UNK         0.3047 
    118 H118      -79.2685   21.9896  -75.6681 H         1 UNK         0.0822 
    119 H119      -76.7581   22.0750  -76.0589 H         1 UNK         0.0807 
    120 H120      -77.1597   21.1387  -74.6281 H         1 UNK         0.0807 
    121 H121      -76.5404   22.7776  -74.4618 H         1 UNK         0.0807 
    122 H122      -79.1001   23.7866  -73.4125 H         1 UNK         0.2946 
    123 H123      -81.4548   21.9324  -71.6467 H         1 UNK         0.1144 
    124 H124      -78.6455   22.5590  -70.5794 H         1 UNK         0.0793 
    125 H125      -79.4286   20.9860  -70.5229 H         1 UNK         0.0793 
    126 H126      -80.0965   22.3230  -69.6028 H         1 UNK         0.0793 
    127 H127      -80.2527   24.4260  -71.0219 H         1 UNK         0.2896 
@<TRIPOS>BOND
     1    1    2 1    
     2    1   67 1    
     3    1   68 1    
     4    1   69 1    
     5    2    3 2    
     6    2    4 am   BACKBONE|DICT|INTERRES
     7    4    5 1    
     8    4   70 1    
     9    5    6 1    
    10    5   65 1    
    11    5   71 1    
    12    6    7 1    
    13    6   72 1    
    14    6   73 1    
    15    7    8 1    
    16    8    9 1    
    17    8   74 1    
    18    8   75 1    
    19    9   10 ar   
    20    9   14 ar   
    21   10   11 ar   
    22   10   76 1    
    23   11   12 ar   
    24   11   48 1    
    25   12   13 ar   
    26   12   77 1    
    27   13   14 ar   
    28   13   15 1    
    29   14   78 1    
    30   15   16 1    
    31   15   79 1    
    32   15   80 1    
    33   16   17 1    
    34   17   18 1    
    35   17   81 1    
    36   17   82 1    
    37   18   19 1    
    38   18   22 1    
    39   18   83 1    
    40   19   20 am   BACKBONE|DICT|INTERRES
    41   19   21 2    
    42   20   84 1    
    43   20   85 1    
    44   22   23 am   BACKBONE|DICT|INTERRES
    45   22   86 1    
    46   23   24 2    
    47   23   25 1    
    48   25   26 1    
    49   25   27 1    
    50   25   87 1    
    51   26   88 1    
    52   26   89 1    
    53   26   90 1    
    54   27   28 am   BACKBONE|DICT|INTERRES
    55   27   91 1    
    56   28   29 2    
    57   28   30 1    
    58   30   31 1    
    59   30   32 1    
    60   30   92 1    
    61   31   93 1    
    62   31   94 1    
    63   31   95 1    
    64   32   33 am   BACKBONE|DICT|INTERRES
    65   32   96 1    
    66   33   34 2    
    67   33   35 1    
    68   35   36 1    
    69   35   37 1    
    70   35   97 1    
    71   36   98 1    
    72   36   99 1    
    73   36  100 1    
    74   37   38 am   BACKBONE|DICT|INTERRES
    75   37  101 1    
    76   38   39 2    
    77   38   40 1    
    78   40   41 1    
    79   40   42 1    
    80   40  102 1    
    81   41  103 1    
    82   41  104 1    
    83   41  105 1    
    84   42   43 am   BACKBONE|DICT|INTERRES
    85   42  106 1    
    86   43   44 2    
    87   43   45 1    
    88   45   46 1    
    89   45   49 1    
    90   45  107 1    
    91   46   47 1    
    92   46  108 1    
    93   46  109 1    
    94   47   48 1    
    95   48  110 1    
    96   48  111 1    
    97   49   50 am   BACKBONE|DICT|INTERRES
    98   49  112 1    
    99   50   51 2    
   100   50   52 1    
   101   52   53 1    
   102   52   54 1    
   103   52  113 1    
   104   53  114 1    
   105   53  115 1    
   106   53  116 1    
   107   54   55 am   BACKBONE|DICT|INTERRES
   108   54  117 1    
   109   55   56 2    
   110   55   57 1    
   111   57   58 1    
   112   57   59 1    
   113   57  118 1    
   114   58  119 1    
   115   58  120 1    
   116   58  121 1    
   117   59   60 am   BACKBONE|DICT|INTERRES
   118   59  122 1    
   119   60   61 2    
   120   60   62 1    
   121   62   63 1    
   122   62   64 1    
   123   62  123 1    
   124   63  124 1    
   125   63  125 1    
   126   63  126 1    
   127   64   65 am   BACKBONE|DICT|INTERRES
   128   64  127 1    
   129   65   66 2    
@<TRIPOS>SUBSTRUCTURE
     1 UNK         1 GROUP             0       ****    0 ROOT    
