@<TRIPOS>MOLECULE
3R135
127   129    1
SMALL
USER_CHARGES


@<TRIPOS>ATOM
      1 CA        -85.8071   28.6450  -73.2172 C.3       0 UNK        -0.1998 
      2 C         -84.5244   28.1249  -72.5741 C.2       0 UNK         0.4909 
      3 O         -84.5881   27.5010  -71.5166 O.2       0 UNK        -0.5240 
      4 N         -83.3406   28.3481  -73.1628 N.am      1 UNK        -0.4739 
      5 CA        -83.0930   29.0371  -74.4386 C.3       1 UNK         0.0864 
      6 C6        -81.6945   29.7094  -74.4654 C.3       11 UNK        -0.0881 
      7 S7        -80.2989   28.5833  -74.1046 S.3       11 UNK        -0.2682 
      8 C8        -79.8550   29.1339  -72.4307 C.3       11 UNK         0.0289 
      9 C9        -78.6793   28.3542  -71.8620 C.ar      11 UNK        -0.0687 
     10 C10       -78.8918   27.1437  -71.1947 C.ar      11 UNK        -0.0823 
     11 C11       -77.8260   26.4701  -70.5889 C.ar      11 UNK        -0.0830 
     12 C12       -76.5401   27.0133  -70.6600 C.ar      11 UNK        -0.1021 
     13 C13       -76.3125   28.2086  -71.3457 C.ar      11 UNK        -0.0753 
     14 C14       -77.3838   28.8723  -71.9508 C.ar      11 UNK        -0.0933 
     15 C15       -74.9146   28.7998  -71.3995 C.3       11 UNK         0.0166 
     16 S16       -73.8863   27.9400  -72.6229 S.3       11 UNK        -0.2615 
     17 C17       -72.4461   29.0592  -72.6759 C.3       11 UNK        -0.0865 
     18 CA        -72.5699   30.1610  -73.7606 C.3       10 UNK         0.0862 
     19 C         -71.3435   31.1198  -73.6980 C.2       10 UNK         0.5551 
     20 N         -70.4517   31.1309  -74.6825 N.am      10 UNK        -0.7319 
     21 O         -71.2027   31.8681  -72.7339 O.2       10 UNK        -0.5018 
     22 N         -72.8306   29.6005  -75.0966 N.am      10 UNK        -0.4509 
     23 C         -73.2785   30.3079  -76.1418 C.2       10 UNK         0.4899 
     24 O         -73.6593   31.4765  -76.0536 O.2       10 UNK        -0.4839 
     25 CA        -73.3047   29.6055  -77.5181 C.3       9 UNK         0.0222 
     26 CB        -73.0337   30.5947  -78.6709 C.3       9 UNK        -0.1966 
     27 N         -72.4190   28.4375  -77.6478 N.am      9 UNK        -0.4218 
     28 C         -71.0954   28.3698  -77.4435 C.2       9 UNK         0.5020 
     29 O         -70.4272   29.3108  -77.0094 O.2       9 UNK        -0.5274 
     30 CA        -70.4081   27.0233  -77.7648 C.3       8 UNK         0.0270 
     31 CB        -68.9626   26.9618  -77.2358 C.3       8 UNK        -0.1976 
     32 N         -71.1321   25.8439  -77.2749 N.am      8 UNK        -0.4313 
     33 C         -72.2654   25.3313  -77.7680 C.2       8 UNK         0.5041 
     34 O         -72.8977   25.8546  -78.6861 O.2       8 UNK        -0.5577 
     35 CA        -72.8091   24.0455  -77.1211 C.3       7 UNK         0.0284 
     36 CB        -72.1135   22.7957  -77.6947 C.3       7 UNK        -0.1958 
     37 N         -72.8019   24.0487  -75.6505 N.am      7 UNK        -0.4454 
     38 C         -71.7575   24.0399  -74.8067 C.2       7 UNK         0.5089 
     39 O         -70.5849   24.0335  -75.1839 O.2       7 UNK        -0.5125 
     40 CA        -72.0481   24.0991  -73.2933 C.3       6 UNK         0.0408 
     41 CB        -71.2785   25.2600  -72.6443 C.3       6 UNK        -0.1791 
     42 N         -73.4756   24.2440  -72.9896 N.am      6 UNK        -0.4762 
     43 C         -74.3271   23.2202  -72.8303 C.2       6 UNK         0.5007 
     44 O         -73.9824   22.0383  -72.8560 O.2       6 UNK        -0.5032 
     45 CA        -75.8201   23.5647  -72.6471 C.3       5 UNK         0.0783 
     46 C46       -76.2123   23.5086  -71.1518 C.3       11 UNK        -0.0857 
     47 S47       -78.0076   23.7150  -70.8944 S.3       11 UNK        -0.2512 
     48 C48       -78.0750   25.1815  -69.8188 C.3       11 UNK         0.0225 
     49 N         -76.2127   24.8263  -73.2942 N.am      5 UNK        -0.4615 
     50 C         -76.1978   25.0203  -74.6185 C.2       4 UNK         0.5053 
     51 O         -75.7449   24.2023  -75.4213 O.2       4 UNK        -0.5105 
     52 CA        -76.7754   26.3398  -75.1507 C.3       4 UNK         0.0263 
     53 CB        -75.6854   27.1679  -75.8530 C.3       4 UNK        -0.1981 
     54 N         -77.8491   26.0739  -76.1081 N.am      4 UNK        -0.4224 
     55 C         -79.0299   25.5258  -75.7978 C.2       3 UNK         0.4895 
     56 O         -79.3856   25.2401  -74.6515 O.2       3 UNK        -0.5091 
     57 CA        -79.9679   25.2227  -76.9692 C.3       3 UNK         0.0250 
     58 CB        -79.7655   23.7768  -77.4642 C.3       3 UNK        -0.1996 
     59 N         -81.3335   25.4291  -76.5024 N.am      3 UNK        -0.4254 
     60 C         -82.4323   25.5137  -77.2596 C.2       2 UNK         0.5004 
     61 O         -82.4434   25.3726  -78.4831 O.2       2 UNK        -0.5226 
     62 CA        -83.7414   25.8372  -76.5207 C.3       2 UNK         0.0269 
     63 CB        -84.3644   24.5623  -75.9286 C.3       2 UNK        -0.1926 
     64 N         -83.5481   26.8279  -75.4568 N.am      2 UNK        -0.4687 
     65 C         -83.3199   28.1330  -75.6719 C.2       1 UNK         0.5165 
     66 O         -83.3031   28.6385  -76.7953 O.2       1 UNK        -0.5079 
     67 H67       -86.6780   28.3110  -72.6529 H         1 UNK         0.0900 
     68 H68       -85.9173   28.2788  -74.2373 H         1 UNK         0.0900 
     69 H69       -85.8191   29.7348  -73.2285 H         1 UNK         0.0900 
     70 H70       -82.5087   27.9865  -72.7184 H         1 UNK         0.2959 
     71 H71       -83.8191   29.8464  -74.5379 H         1 UNK         0.1079 
     72 H72       -81.5107   30.1794  -75.4338 H         1 UNK         0.0837 
     73 H73       -81.6828   30.5328  -73.7496 H         1 UNK         0.0837 
     74 H74       -80.7187   29.0290  -71.7724 H         1 UNK         0.0685 
     75 H75       -79.6176   30.1987  -72.4551 H         1 UNK         0.0685 
     76 H76       -79.8918   26.7370  -71.1285 H         1 UNK         0.1434 
     77 H77       -75.7118   26.5152  -70.1753 H         1 UNK         0.1329 
     78 H78       -77.2143   29.8068  -72.4682 H         1 UNK         0.1335 
     79 H79       -74.9626   29.8613  -71.6473 H         1 UNK         0.0680 
     80 H80       -74.4446   28.7310  -70.4173 H         1 UNK         0.0680 
     81 H81       -72.3122   29.5057  -71.6883 H         1 UNK         0.1032 
     82 H82       -71.5494   28.4642  -72.8509 H         1 UNK         0.1032 
     83 H83       -73.4373   30.7704  -73.4994 H         1 UNK         0.0461 
     84 H84       -69.6657   31.7583  -74.6281 H         1 UNK         0.3453 
     85 H85       -70.5453   30.5089  -75.4807 H         1 UNK         0.3453 
     86 H86       -72.5321   28.6501  -75.2497 H         1 UNK         0.2984 
     87 H87       -74.3197   29.2270  -77.6420 H         1 UNK         0.0554 
     88 H88       -73.0863   30.0994  -79.6404 H         1 UNK         0.0847 
     89 H89       -72.0486   31.0544  -78.5822 H         1 UNK         0.0847 
     90 H90       -73.7691   31.4002  -78.6834 H         1 UNK         0.0847 
     91 H91       -72.8486   27.5919  -78.0209 H         1 UNK         0.3141 
     92 H92       -70.3628   26.9556  -78.8537 H         1 UNK         0.0743 
     93 H93       -68.3598   27.7770  -77.6385 H         1 UNK         0.0784 
     94 H94       -68.9300   27.0364  -76.1480 H         1 UNK         0.0784 
     95 H95       -68.4735   26.0307  -77.5229 H         1 UNK         0.0784 
     96 H96       -70.7057   25.3305  -76.5058 H         1 UNK         0.3213 
     97 H97       -73.8617   23.9839  -77.4029 H         1 UNK         0.0855 
     98 H98       -71.0447   22.7832  -77.4797 H         1 UNK         0.0814 
     99 H99       -72.2239   22.7549  -78.7791 H         1 UNK         0.0814 
    100 H100      -72.5477   21.8812  -77.2907 H         1 UNK         0.0814 
    101 H101      -73.7310   24.0731  -75.2421 H         1 UNK         0.3105 
    102 H102      -71.6775   23.1700  -72.8556 H         1 UNK         0.0547 
    103 H103      -71.4877   26.2022  -73.1473 H         1 UNK         0.0837 
    104 H104      -71.5305   25.3729  -71.5898 H         1 UNK         0.0837 
    105 H105      -70.2017   25.0961  -72.7038 H         1 UNK         0.0837 
    106 H106      -73.8418   25.1862  -72.9528 H         1 UNK         0.3020 
    107 H107      -76.3720   22.7710  -73.1568 H         1 UNK         0.1245 
    108 H108      -75.6570   24.2510  -70.5785 H         1 UNK         0.0781 
    109 H109      -75.9385   22.5411  -70.7260 H         1 UNK         0.0781 
    110 H110      -79.0587   25.2221  -69.3485 H         1 UNK         0.0836 
    111 H111      -77.3590   25.0751  -69.0022 H         1 UNK         0.0836 
    112 H112      -76.6260   25.5276  -72.6935 H         1 UNK         0.3022 
    113 H113      -77.1810   26.9201  -74.3185 H         1 UNK         0.0747 
    114 H114      -74.8238   27.3199  -75.2061 H         1 UNK         0.0793 
    115 H115      -76.0589   28.1535  -76.1309 H         1 UNK         0.0793 
    116 H116      -75.3209   26.6766  -76.7565 H         1 UNK         0.0793 
    117 H117      -77.6315   26.2390  -77.0798 H         1 UNK         0.3047 
    118 H118      -79.7671   25.9240  -77.7821 H         1 UNK         0.0822 
    119 H119      -78.7307   23.6083  -77.7658 H         1 UNK         0.0807 
    120 H120      -80.3916   23.5550  -78.3283 H         1 UNK         0.0807 
    121 H121      -80.0004   23.0505  -76.6850 H         1 UNK         0.0807 
    122 H122      -81.4058   25.5734  -75.5025 H         1 UNK         0.2946 
    123 H123      -84.4393   26.2493  -77.2539 H         1 UNK         0.1144 
    124 H124      -83.7216   24.1083  -75.1733 H         1 UNK         0.0793 
    125 H125      -84.5326   23.8147  -76.7053 H         1 UNK         0.0793 
    126 H126      -85.3300   24.7706  -75.4671 H         1 UNK         0.0793 
    127 H127      -83.5478   26.4927  -74.5039 H         1 UNK         0.2896 
@<TRIPOS>BOND
     1    1    2 1    
     2    1   67 1    
     3    1   68 1    
     4    1   69 1    
     5    2    3 2    
     6    2    4 am   BACKBONE|DICT|INTERRES
     7    4    5 1    
     8    4   70 1    
     9    5    6 1    
    10    5   65 1    
    11    5   71 1    
    12    6    7 1    
    13    6   72 1    
    14    6   73 1    
    15    7    8 1    
    16    8    9 1    
    17    8   74 1    
    18    8   75 1    
    19    9   10 ar   
    20    9   14 ar   
    21   10   11 ar   
    22   10   76 1    
    23   11   12 ar   
    24   11   48 1    
    25   12   13 ar   
    26   12   77 1    
    27   13   14 ar   
    28   13   15 1    
    29   14   78 1    
    30   15   16 1    
    31   15   79 1    
    32   15   80 1    
    33   16   17 1    
    34   17   18 1    
    35   17   81 1    
    36   17   82 1    
    37   18   19 1    
    38   18   22 1    
    39   18   83 1    
    40   19   20 am   BACKBONE|DICT|INTERRES
    41   19   21 2    
    42   20   84 1    
    43   20   85 1    
    44   22   23 am   BACKBONE|DICT|INTERRES
    45   22   86 1    
    46   23   24 2    
    47   23   25 1    
    48   25   26 1    
    49   25   27 1    
    50   25   87 1    
    51   26   88 1    
    52   26   89 1    
    53   26   90 1    
    54   27   28 am   BACKBONE|DICT|INTERRES
    55   27   91 1    
    56   28   29 2    
    57   28   30 1    
    58   30   31 1    
    59   30   32 1    
    60   30   92 1    
    61   31   93 1    
    62   31   94 1    
    63   31   95 1    
    64   32   33 am   BACKBONE|DICT|INTERRES
    65   32   96 1    
    66   33   34 2    
    67   33   35 1    
    68   35   36 1    
    69   35   37 1    
    70   35   97 1    
    71   36   98 1    
    72   36   99 1    
    73   36  100 1    
    74   37   38 am   BACKBONE|DICT|INTERRES
    75   37  101 1    
    76   38   39 2    
    77   38   40 1    
    78   40   41 1    
    79   40   42 1    
    80   40  102 1    
    81   41  103 1    
    82   41  104 1    
    83   41  105 1    
    84   42   43 am   BACKBONE|DICT|INTERRES
    85   42  106 1    
    86   43   44 2    
    87   43   45 1    
    88   45   46 1    
    89   45   49 1    
    90   45  107 1    
    91   46   47 1    
    92   46  108 1    
    93   46  109 1    
    94   47   48 1    
    95   48  110 1    
    96   48  111 1    
    97   49   50 am   BACKBONE|DICT|INTERRES
    98   49  112 1    
    99   50   51 2    
   100   50   52 1    
   101   52   53 1    
   102   52   54 1    
   103   52  113 1    
   104   53  114 1    
   105   53  115 1    
   106   53  116 1    
   107   54   55 am   BACKBONE|DICT|INTERRES
   108   54  117 1    
   109   55   56 2    
   110   55   57 1    
   111   57   58 1    
   112   57   59 1    
   113   57  118 1    
   114   58  119 1    
   115   58  120 1    
   116   58  121 1    
   117   59   60 am   BACKBONE|DICT|INTERRES
   118   59  122 1    
   119   60   61 2    
   120   60   62 1    
   121   62   63 1    
   122   62   64 1    
   123   62  123 1    
   124   63  124 1    
   125   63  125 1    
   126   63  126 1    
   127   64   65 am   BACKBONE|DICT|INTERRES
   128   64  127 1    
   129   65   66 2    
@<TRIPOS>SUBSTRUCTURE
     1 UNK         1 GROUP             0       ****    0 ROOT    
