@<TRIPOS>MOLECULE
3R135
127   129    1
SMALL
USER_CHARGES


@<TRIPOS>ATOM
      1 CA        -86.0646   26.8077  -73.3348 C.3       0 UNK        -0.1998 
      2 C         -84.9777   27.3483  -74.2517 C.2       0 UNK         0.4909 
      3 O         -85.2216   27.5382  -75.4436 O.2       0 UNK        -0.5240 
      4 N         -83.7808   27.6004  -73.7039 N.am      1 UNK        -0.4739 
      5 CA        -82.6081   28.0932  -74.4414 C.3       1 UNK         0.0864 
      6 C6        -81.5256   28.6329  -73.4729 C.3       11 UNK        -0.0881 
      7 S7        -80.6277   30.0729  -74.1417 S.3       11 UNK        -0.2682 
      8 C8        -79.9453   30.8078  -72.6196 C.3       11 UNK         0.0289 
      9 C9        -78.7563   30.0242  -72.0761 C.ar      11 UNK        -0.0687 
     10 C10       -78.9583   28.8606  -71.3300 C.ar      11 UNK        -0.0823 
     11 C11       -77.8768   28.1422  -70.8147 C.ar      11 UNK        -0.0830 
     12 C12       -76.5747   28.6120  -71.0264 C.ar      11 UNK        -0.1021 
     13 C13       -76.3596   29.8005  -71.7360 C.ar      11 UNK        -0.0753 
     14 C14       -77.4528   30.4883  -72.2743 C.ar      11 UNK        -0.0933 
     15 C15       -74.9641   30.4005  -71.8582 C.3       11 UNK         0.0166 
     16 S16       -74.2857   30.2576  -73.5407 S.3       11 UNK        -0.2615 
     17 C17       -73.3018   28.7261  -73.4193 C.3       11 UNK        -0.0865 
     18 CA        -71.7720   28.9722  -73.4904 C.3       10 UNK         0.0862 
     19 C         -70.9844   27.6491  -73.2523 C.2       10 UNK         0.5551 
     20 N         -70.1759   27.1651  -74.1895 N.am      10 UNK        -0.7319 
     21 O         -71.0994   27.0556  -72.1831 O.2       10 UNK        -0.5018 
     22 N         -71.3849   29.6819  -74.7207 N.am      10 UNK        -0.4509 
     23 C         -70.2649   30.4063  -74.8556 C.2       10 UNK         0.4899 
     24 O         -69.4917   30.6359  -73.9239 O.2       10 UNK        -0.4839 
     25 CA        -69.9490   30.9705  -76.2595 C.3       9 UNK         0.0222 
     26 CB        -68.4397   31.2183  -76.4709 C.3       9 UNK        -0.1966 
     27 N         -70.4977   30.1704  -77.3631 N.am      9 UNK        -0.4218 
     28 C         -70.2546   28.8778  -77.6241 C.2       9 UNK         0.5020 
     29 O         -69.4880   28.1648  -76.9716 O.2       9 UNK        -0.5274 
     30 CA        -71.0643   28.2594  -78.7781 C.3       8 UNK         0.0270 
     31 CB        -70.1325   27.7218  -79.8771 C.3       8 UNK        -0.1976 
     32 N         -71.9394   27.1806  -78.3076 N.am      8 UNK        -0.4313 
     33 C         -72.8614   27.3031  -77.3424 C.2       8 UNK         0.5041 
     34 O         -73.1068   28.3699  -76.7710 O.2       8 UNK        -0.5577 
     35 CA        -73.6020   26.0131  -76.9396 C.3       7 UNK         0.0284 
     36 CB        -72.6346   24.9873  -76.3227 C.3       7 UNK        -0.1958 
     37 N         -74.6573   26.2789  -75.9648 N.am      7 UNK        -0.4454 
     38 C         -75.8374   26.8537  -76.2142 C.2       7 UNK         0.5089 
     39 O         -76.2463   27.1113  -77.3482 O.2       7 UNK        -0.5125 
     40 CA        -76.7033   27.1691  -74.9772 C.3       6 UNK         0.0408 
     41 CB        -78.0672   27.7709  -75.3474 C.3       6 UNK        -0.1791 
     42 N         -76.9134   25.9923  -74.1267 N.am      6 UNK        -0.4762 
     43 C         -76.0172   25.5098  -73.2507 C.2       6 UNK         0.5007 
     44 O         -74.8962   25.9962  -73.1044 O.2       6 UNK        -0.5032 
     45 CA        -76.3742   24.2517  -72.4433 C.3       5 UNK         0.0783 
     46 C46       -76.9267   24.5685  -71.0333 C.3       11 UNK        -0.0857 
     47 S47       -78.5312   25.4416  -71.0022 S.3       11 UNK        -0.2512 
     48 C48       -78.1452   26.9000  -69.9761 C.3       11 UNK         0.0225 
     49 N         -77.2122   23.3312  -73.2156 N.am      5 UNK        -0.4615 
     50 C         -76.9476   22.0240  -73.3523 C.2       4 UNK         0.5053 
     51 O         -76.0802   21.4303  -72.7102 O.2       4 UNK        -0.5105 
     52 CA        -77.7537   21.2372  -74.4041 C.3       4 UNK         0.0263 
     53 CB        -78.9466   20.5274  -73.7439 C.3       4 UNK        -0.1981 
     54 N         -78.2415   22.0653  -75.5084 N.am      4 UNK        -0.4224 
     55 C         -77.4865   22.7914  -76.3469 C.2       3 UNK         0.4895 
     56 O         -76.2575   22.7327  -76.3853 O.2       3 UNK        -0.5091 
     57 CA        -78.2194   23.7769  -77.2795 C.3       3 UNK         0.0250 
     58 CB        -78.0913   23.3304  -78.7451 C.3       3 UNK        -0.1996 
     59 N         -79.6396   23.9916  -76.9672 N.am      3 UNK        -0.4254 
     60 C         -80.1287   24.5046  -75.8290 C.2       2 UNK         0.5004 
     61 O         -79.4328   24.8150  -74.8571 O.2       2 UNK        -0.5226 
     62 CA        -81.6596   24.5862  -75.7365 C.3       2 UNK         0.0269 
     63 CB        -82.2164   23.3150  -75.0744 C.3       2 UNK        -0.1926 
     64 N         -82.1093   25.7502  -74.9756 N.am      2 UNK        -0.4687 
     65 C         -82.0295   27.0220  -75.3935 C.2       1 UNK         0.5165 
     66 O         -81.5652   27.3548  -76.4850 O.2       1 UNK        -0.5079 
     67 H67       -86.3994   25.8318  -73.6854 H         1 UNK         0.0900 
     68 H68       -86.9214   27.4810  -73.3311 H         1 UNK         0.0900 
     69 H69       -85.7158   26.6978  -72.3081 H         1 UNK         0.0900 
     70 H70       -83.6454   27.4315  -72.7171 H         1 UNK         0.2959 
     71 H71       -82.9588   28.9172  -75.0677 H         1 UNK         0.1079 
     72 H72       -80.8137   27.8526  -73.1963 H         1 UNK         0.0837 
     73 H73       -81.9906   28.9558  -72.5400 H         1 UNK         0.0837 
     74 H74       -80.7245   30.8806  -71.8595 H         1 UNK         0.0685 
     75 H75       -79.6461   31.8339  -72.8390 H         1 UNK         0.0685 
     76 H76       -79.9629   28.5123  -71.1381 H         1 UNK         0.1434 
     77 H77       -75.7343   28.0748  -70.6085 H         1 UNK         0.1329 
     78 H78       -77.2865   31.4042  -72.8248 H         1 UNK         0.1335 
     79 H79       -75.0165   31.4598  -71.6021 H         1 UNK         0.0680 
     80 H80       -74.2798   29.9565  -71.1336 H         1 UNK         0.0680 
     81 H81       -73.5649   28.2024  -72.4986 H         1 UNK         0.1032 
     82 H82       -73.6083   28.0676  -74.2288 H         1 UNK         0.1032 
     83 H83       -71.5195   29.6181  -72.6472 H         1 UNK         0.0461 
     84 H84       -69.6681   26.3150  -74.0059 H         1 UNK         0.3453 
     85 H85       -70.0449   27.6468  -75.0722 H         1 UNK         0.3453 
     86 H86       -71.9657   29.4938  -75.5328 H         1 UNK         0.2984 
     87 H87       -70.4507   31.9377  -76.3105 H         1 UNK         0.0554 
     88 H88       -68.2391   31.6330  -77.4587 H         1 UNK         0.0847 
     89 H89       -67.8615   30.2991  -76.3692 H         1 UNK         0.0847 
     90 H90       -68.0511   31.9285  -75.7400 H         1 UNK         0.0847 
     91 H91       -71.1849   30.6424  -77.9354 H         1 UNK         0.3141 
     92 H92       -71.7015   29.0286  -79.2194 H         1 UNK         0.0743 
     93 H93       -69.4784   28.5099  -80.2526 H         1 UNK         0.0784 
     94 H94       -69.4939   26.9179  -79.5079 H         1 UNK         0.0784 
     95 H95       -70.6978   27.3394  -80.7272 H         1 UNK         0.0784 
     96 H96       -71.7786   26.2682  -78.7087 H         1 UNK         0.3213 
     97 H97       -74.0560   25.5842  -77.8355 H         1 UNK         0.0855 
     98 H98       -72.1445   25.3823  -75.4319 H         1 UNK         0.0814 
     99 H99       -71.8518   24.6990  -77.0248 H         1 UNK         0.0814 
    100 H100      -73.1586   24.0743  -76.0377 H         1 UNK         0.0814 
    101 H101      -74.4304   26.1213  -74.9882 H         1 UNK         0.3105 
    102 H102      -76.1714   27.9228  -74.3932 H         1 UNK         0.0547 
    103 H103      -78.6706   27.9360  -74.4564 H         1 UNK         0.0837 
    104 H104      -77.9474   28.7349  -75.8427 H         1 UNK         0.0837 
    105 H105      -78.6314   27.1260  -76.0208 H         1 UNK         0.0837 
    106 H106      -77.8233   25.5482  -74.2196 H         1 UNK         0.3020 
    107 H107      -75.4064   23.7696  -72.2825 H         1 UNK         0.1245 
    108 H108      -76.1817   25.1390  -70.4763 H         1 UNK         0.0781 
    109 H109      -77.0486   23.6374  -70.4780 H         1 UNK         0.0781 
    110 H110      -77.3107   26.6966  -69.3040 H         1 UNK         0.0836 
    111 H111      -78.9992   27.0911  -69.3244 H         1 UNK         0.0836 
    112 H112      -77.9629   23.7416  -73.7585 H         1 UNK         0.3022 
    113 H113      -77.0899   20.4808  -74.8278 H         1 UNK         0.0747 
    114 H114      -79.4809   19.8994  -74.4571 H         1 UNK         0.0793 
    115 H115      -78.6138   19.8800  -72.9312 H         1 UNK         0.0793 
    116 H116      -79.6576   21.2396  -73.3225 H         1 UNK         0.0793 
    117 H117      -79.2414   22.1827  -75.5692 H         1 UNK         0.3047 
    118 H118      -77.7173   24.7396  -77.1730 H         1 UNK         0.0822 
    119 H119      -77.0446   23.2022  -79.0253 H         1 UNK         0.0807 
    120 H120      -78.5150   24.0702  -79.4246 H         1 UNK         0.0807 
    121 H121      -78.5952   22.3796  -78.9232 H         1 UNK         0.0807 
    122 H122      -80.2909   23.7360  -77.6961 H         1 UNK         0.2946 
    123 H123      -82.0710   24.6670  -76.7456 H         1 UNK         0.1144 
    124 H124      -81.9416   22.4234  -75.6396 H         1 UNK         0.0793 
    125 H125      -83.3052   23.3385  -75.0231 H         1 UNK         0.0793 
    126 H126      -81.8354   23.1884  -74.0598 H         1 UNK         0.0793 
    127 H127      -82.4895   25.5728  -74.0579 H         1 UNK         0.2896 
@<TRIPOS>BOND
     1    1    2 1    
     2    1   67 1    
     3    1   68 1    
     4    1   69 1    
     5    2    3 2    
     6    2    4 am   BACKBONE|DICT|INTERRES
     7    4    5 1    
     8    4   70 1    
     9    5    6 1    
    10    5   65 1    
    11    5   71 1    
    12    6    7 1    
    13    6   72 1    
    14    6   73 1    
    15    7    8 1    
    16    8    9 1    
    17    8   74 1    
    18    8   75 1    
    19    9   10 ar   
    20    9   14 ar   
    21   10   11 ar   
    22   10   76 1    
    23   11   12 ar   
    24   11   48 1    
    25   12   13 ar   
    26   12   77 1    
    27   13   14 ar   
    28   13   15 1    
    29   14   78 1    
    30   15   16 1    
    31   15   79 1    
    32   15   80 1    
    33   16   17 1    
    34   17   18 1    
    35   17   81 1    
    36   17   82 1    
    37   18   19 1    
    38   18   22 1    
    39   18   83 1    
    40   19   20 am   BACKBONE|DICT|INTERRES
    41   19   21 2    
    42   20   84 1    
    43   20   85 1    
    44   22   23 am   BACKBONE|DICT|INTERRES
    45   22   86 1    
    46   23   24 2    
    47   23   25 1    
    48   25   26 1    
    49   25   27 1    
    50   25   87 1    
    51   26   88 1    
    52   26   89 1    
    53   26   90 1    
    54   27   28 am   BACKBONE|DICT|INTERRES
    55   27   91 1    
    56   28   29 2    
    57   28   30 1    
    58   30   31 1    
    59   30   32 1    
    60   30   92 1    
    61   31   93 1    
    62   31   94 1    
    63   31   95 1    
    64   32   33 am   BACKBONE|DICT|INTERRES
    65   32   96 1    
    66   33   34 2    
    67   33   35 1    
    68   35   36 1    
    69   35   37 1    
    70   35   97 1    
    71   36   98 1    
    72   36   99 1    
    73   36  100 1    
    74   37   38 am   BACKBONE|DICT|INTERRES
    75   37  101 1    
    76   38   39 2    
    77   38   40 1    
    78   40   41 1    
    79   40   42 1    
    80   40  102 1    
    81   41  103 1    
    82   41  104 1    
    83   41  105 1    
    84   42   43 am   BACKBONE|DICT|INTERRES
    85   42  106 1    
    86   43   44 2    
    87   43   45 1    
    88   45   46 1    
    89   45   49 1    
    90   45  107 1    
    91   46   47 1    
    92   46  108 1    
    93   46  109 1    
    94   47   48 1    
    95   48  110 1    
    96   48  111 1    
    97   49   50 am   BACKBONE|DICT|INTERRES
    98   49  112 1    
    99   50   51 2    
   100   50   52 1    
   101   52   53 1    
   102   52   54 1    
   103   52  113 1    
   104   53  114 1    
   105   53  115 1    
   106   53  116 1    
   107   54   55 am   BACKBONE|DICT|INTERRES
   108   54  117 1    
   109   55   56 2    
   110   55   57 1    
   111   57   58 1    
   112   57   59 1    
   113   57  118 1    
   114   58  119 1    
   115   58  120 1    
   116   58  121 1    
   117   59   60 am   BACKBONE|DICT|INTERRES
   118   59  122 1    
   119   60   61 2    
   120   60   62 1    
   121   62   63 1    
   122   62   64 1    
   123   62  123 1    
   124   63  124 1    
   125   63  125 1    
   126   63  126 1    
   127   64   65 am   BACKBONE|DICT|INTERRES
   128   64  127 1    
   129   65   66 2    
@<TRIPOS>SUBSTRUCTURE
     1 UNK         1 GROUP             0       ****    0 ROOT    
