@<TRIPOS>MOLECULE
3R135
127   129    1
SMALL
USER_CHARGES


@<TRIPOS>ATOM
      1 CA        -80.1779   29.3848  -71.0522 C.3       0 UNK        -0.1998 
      2 C         -80.8201   29.1546  -72.4104 C.2       0 UNK         0.4909 
      3 O         -82.0443   29.0652  -72.5076 O.2       0 UNK        -0.5240 
      4 N         -79.9970   29.0609  -73.4626 N.am      1 UNK        -0.4739 
      5 CA        -80.4301   28.8695  -74.8560 C.3       1 UNK         0.0864 
      6 C6        -79.3338   29.2434  -75.8881 C.3       11 UNK        -0.0881 
      7 S7        -78.5050   30.8337  -75.5352 S.3       11 UNK        -0.2682 
      8 C8        -76.8223   30.2790  -75.1120 C.3       11 UNK         0.0289 
      9 C9        -76.7703   29.5387  -73.7829 C.ar      11 UNK        -0.0687 
     10 C10       -76.8672   28.1436  -73.7426 C.ar      11 UNK        -0.0823 
     11 C11       -76.8659   27.4639  -72.5203 C.ar      11 UNK        -0.0830 
     12 C12       -76.7257   28.1914  -71.3353 C.ar      11 UNK        -0.1021 
     13 C13       -76.6140   29.5844  -71.3632 C.ar      11 UNK        -0.0753 
     14 C14       -76.6396   30.2536  -72.5897 C.ar      11 UNK        -0.0933 
     15 C15       -76.5191   30.3618  -70.0600 C.3       11 UNK         0.0166 
     16 S16       -74.8224   30.3912  -69.4086 S.3       11 UNK        -0.2615 
     17 C17       -74.0556   31.7307  -70.3906 C.3       11 UNK        -0.0865 
     18 CA        -72.6880   31.3484  -71.0138 C.3       10 UNK         0.0862 
     19 C         -71.5876   31.1528  -69.9257 C.2       10 UNK         0.5551 
     20 N         -71.0293   29.9612  -69.7485 N.am      10 UNK        -0.7319 
     21 O         -71.2296   32.1066  -69.2387 O.2       10 UNK        -0.5018 
     22 N         -72.8217   30.2616  -72.0001 N.am      10 UNK        -0.4509 
     23 C         -71.8874   29.9412  -72.9061 C.2       10 UNK         0.4899 
     24 O         -70.8167   30.5384  -73.0210 O.2       10 UNK        -0.4839 
     25 CA        -72.1900   28.7514  -73.8352 C.3       9 UNK         0.0222 
     26 CB        -72.9426   27.6135  -73.1214 C.3       9 UNK        -0.1966 
     27 N         -72.9406   29.1612  -75.0230 N.am      9 UNK        -0.4218 
     28 C         -72.4826   29.9349  -76.0160 C.2       9 UNK         0.5020 
     29 O         -71.3241   30.3472  -76.0955 O.2       9 UNK        -0.5274 
     30 CA        -73.4894   30.2726  -77.1322 C.3       8 UNK         0.0270 
     31 CB        -73.0718   31.5134  -77.9438 C.3       8 UNK        -0.1976 
     32 N         -73.6843   29.1493  -78.0503 N.am      8 UNK        -0.4313 
     33 C         -74.3340   28.0144  -77.7676 C.2       8 UNK         0.5041 
     34 O         -74.8753   27.7765  -76.6821 O.2       8 UNK        -0.5577 
     35 CA        -74.3708   26.9620  -78.8804 C.3       7 UNK         0.0284 
     36 CB        -72.9978   26.2759  -79.0281 C.3       7 UNK        -0.1958 
     37 N         -75.3867   25.9799  -78.5260 N.am      7 UNK        -0.4454 
     38 C         -75.9203   25.0483  -79.3223 C.2       7 UNK         0.5089 
     39 O         -75.6589   24.9507  -80.5227 O.2       7 UNK        -0.5125 
     40 CA        -76.9103   24.0604  -78.6640 C.3       6 UNK         0.0408 
     41 CB        -76.9532   22.7014  -79.3933 C.3       6 UNK        -0.1791 
     42 N         -76.6895   23.8753  -77.2206 N.am      6 UNK        -0.4762 
     43 C         -75.5679   23.4352  -76.6195 C.2       6 UNK         0.5007 
     44 O         -74.5661   23.0419  -77.2172 O.2       6 UNK        -0.5032 
     45 CA        -75.5694   23.4637  -75.0835 C.3       5 UNK         0.0783 
     46 C46       -75.5097   24.9271  -74.5808 C.3       11 UNK        -0.0857 
     47 S47       -75.5084   25.0491  -72.7617 S.3       11 UNK        -0.2512 
     48 C48       -77.0585   25.9534  -72.4653 C.3       11 UNK         0.0225 
     49 N         -76.7423   22.7326  -74.6025 N.am      5 UNK        -0.4615 
     50 C         -76.7359   21.4320  -74.2775 C.2       4 UNK         0.5053 
     51 O         -75.7169   20.7438  -74.2123 O.2       4 UNK        -0.5105 
     52 CA        -78.1011   20.7735  -74.0018 C.3       4 UNK         0.0263 
     53 CB        -78.4550   20.8753  -72.5093 C.3       4 UNK        -0.1981 
     54 N         -79.1803   21.3633  -74.7962 N.am      4 UNK        -0.4224 
     55 C         -79.2561   21.3339  -76.1355 C.2       3 UNK         0.4895 
     56 O         -78.5250   20.6413  -76.8426 O.2       3 UNK        -0.5091 
     57 CA        -80.2984   22.2520  -76.8056 C.3       3 UNK         0.0250 
     58 CB        -81.4291   21.4195  -77.4321 C.3       3 UNK        -0.1996 
     59 N         -80.8825   23.2555  -75.9062 N.am      3 UNK        -0.4254 
     60 C         -80.2227   24.2763  -75.3410 C.2       2 UNK         0.5004 
     61 O         -79.0215   24.5071  -75.5193 O.2       2 UNK        -0.5226 
     62 CA        -81.0242   25.0930  -74.3174 C.3       2 UNK         0.0269 
     63 CB        -80.8825   24.4704  -72.9178 C.3       2 UNK        -0.1926 
     64 N         -80.5873   26.4852  -74.2584 N.am      2 UNK        -0.4687 
     65 C         -80.9497   27.4398  -75.1264 C.2       1 UNK         0.5165 
     66 O         -81.6743   27.2329  -76.1012 O.2       1 UNK        -0.5079 
     67 H67       -80.9302   29.6442  -70.3076 H         1 UNK         0.0900 
     68 H68       -79.4586   30.2016  -71.1004 H         1 UNK         0.0900 
     69 H69       -79.6630   28.4850  -70.7168 H         1 UNK         0.0900 
     70 H70       -78.9995   29.1705  -73.3291 H         1 UNK         0.2959 
     71 H71       -81.2755   29.5411  -75.0224 H         1 UNK         0.1079 
     72 H72       -78.5881   28.4530  -75.9751 H         1 UNK         0.0837 
     73 H73       -79.7803   29.3223  -76.8812 H         1 UNK         0.0837 
     74 H74       -76.4521   29.6461  -75.9168 H         1 UNK         0.0685 
     75 H75       -76.1651   31.1488  -75.0734 H         1 UNK         0.0685 
     76 H76       -76.9637   27.5913  -74.6653 H         1 UNK         0.1434 
     77 H77       -76.7209   27.6756  -70.3846 H         1 UNK         0.1329 
     78 H78       -76.5760   31.3328  -72.6178 H         1 UNK         0.1335 
     79 H79       -77.1684   29.8976  -69.3161 H         1 UNK         0.0680 
     80 H80       -76.8879   31.3812  -70.1849 H         1 UNK         0.0680 
     81 H81       -73.9475   32.6062  -69.7475 H         1 UNK         0.1032 
     82 H82       -74.7353   32.0432  -71.1834 H         1 UNK         0.1032 
     83 H83       -72.3623   32.2224  -71.5816 H         1 UNK         0.0461 
     84 H84       -71.3234   29.1754  -70.3046 H         1 UNK         0.3453 
     85 H85       -70.3162   29.8474  -69.0457 H         1 UNK         0.3453 
     86 H86       -73.6689   29.7147  -71.9438 H         1 UNK         0.2984 
     87 H87       -71.2298   28.3510  -74.1670 H         1 UNK         0.0554 
     88 H88       -72.9745   26.7202  -73.7441 H         1 UNK         0.0847 
     89 H89       -73.9714   27.8823  -72.8806 H         1 UNK         0.0847 
     90 H90       -72.4482   27.3329  -72.1905 H         1 UNK         0.0847 
     91 H91       -73.8755   28.7821  -75.1295 H         1 UNK         0.3141 
     92 H92       -74.4425   30.5046  -76.6589 H         1 UNK         0.0743 
     93 H93       -73.8396   31.7918  -78.6660 H         1 UNK         0.0784 
     94 H94       -72.9184   32.3729  -77.2897 H         1 UNK         0.0784 
     95 H95       -72.1416   31.3492  -78.4894 H         1 UNK         0.0784 
     96 H96       -73.2449   29.2371  -78.9555 H         1 UNK         0.3213 
     97 H97       -74.6536   27.4472  -79.8169 H         1 UNK         0.0855 
     98 H98       -72.7032   25.7700  -78.1075 H         1 UNK         0.0814 
     99 H99       -72.2161   26.9967  -79.2701 H         1 UNK         0.0814 
    100 H100      -73.0049   25.5338  -79.8264 H         1 UNK         0.0814 
    101 H101      -75.6838   26.0459  -77.5599 H         1 UNK         0.3105 
    102 H102      -77.8968   24.5161  -78.7597 H         1 UNK         0.0547 
    103 H103      -77.2395   22.8248  -80.4383 H         1 UNK         0.0837 
    104 H104      -75.9833   22.2038  -79.3796 H         1 UNK         0.0837 
    105 H105      -77.6805   22.0288  -78.9419 H         1 UNK         0.0837 
    106 H106      -77.4624   24.1702  -76.6280 H         1 UNK         0.3020 
    107 H107      -74.6593   22.9624  -74.7450 H         1 UNK         0.1245 
    108 H108      -76.3437   25.4992  -74.9857 H         1 UNK         0.0781 
    109 H109      -74.6068   25.4178  -74.9488 H         1 UNK         0.0781 
    110 H110      -77.4433   25.6629  -71.4866 H         1 UNK         0.0836 
    111 H111      -77.8160   25.6430  -73.1855 H         1 UNK         0.0836 
    112 H112      -77.6265   23.2223  -74.6630 H         1 UNK         0.3022 
    113 H113      -78.0231   19.7176  -74.2696 H         1 UNK         0.0747 
    114 H114      -79.3889   20.3592  -72.2856 H         1 UNK         0.0793 
    115 H115      -77.6787   20.4182  -71.8939 H         1 UNK         0.0793 
    116 H116      -78.5568   21.9124  -72.1865 H         1 UNK         0.0793 
    117 H117      -79.8513   21.9285  -74.2992 H         1 UNK         0.3047 
    118 H118      -79.7825   22.7861  -77.6062 H         1 UNK         0.0822 
    119 H119      -82.1281   22.0491  -77.9831 H         1 UNK         0.0807 
    120 H120      -81.9927   20.8700  -76.6770 H         1 UNK         0.0807 
    121 H121      -81.0317   20.6884  -78.1377 H         1 UNK         0.0807 
    122 H122      -81.8607   23.1319  -75.6849 H         1 UNK         0.2946 
    123 H123      -82.0795   25.0764  -74.6009 H         1 UNK         0.1144 
    124 H124      -81.4407   25.0394  -72.1738 H         1 UNK         0.0793 
    125 H125      -79.8427   24.4263  -72.5925 H         1 UNK         0.0793 
    126 H126      -81.2730   23.4522  -72.8981 H         1 UNK         0.0793 
    127 H127      -79.9758   26.7449  -73.4996 H         1 UNK         0.2896 
@<TRIPOS>BOND
     1    1    2 1    
     2    1   67 1    
     3    1   68 1    
     4    1   69 1    
     5    2    3 2    
     6    2    4 am   BACKBONE|DICT|INTERRES
     7    4    5 1    
     8    4   70 1    
     9    5    6 1    
    10    5   65 1    
    11    5   71 1    
    12    6    7 1    
    13    6   72 1    
    14    6   73 1    
    15    7    8 1    
    16    8    9 1    
    17    8   74 1    
    18    8   75 1    
    19    9   10 ar   
    20    9   14 ar   
    21   10   11 ar   
    22   10   76 1    
    23   11   12 ar   
    24   11   48 1    
    25   12   13 ar   
    26   12   77 1    
    27   13   14 ar   
    28   13   15 1    
    29   14   78 1    
    30   15   16 1    
    31   15   79 1    
    32   15   80 1    
    33   16   17 1    
    34   17   18 1    
    35   17   81 1    
    36   17   82 1    
    37   18   19 1    
    38   18   22 1    
    39   18   83 1    
    40   19   20 am   BACKBONE|DICT|INTERRES
    41   19   21 2    
    42   20   84 1    
    43   20   85 1    
    44   22   23 am   BACKBONE|DICT|INTERRES
    45   22   86 1    
    46   23   24 2    
    47   23   25 1    
    48   25   26 1    
    49   25   27 1    
    50   25   87 1    
    51   26   88 1    
    52   26   89 1    
    53   26   90 1    
    54   27   28 am   BACKBONE|DICT|INTERRES
    55   27   91 1    
    56   28   29 2    
    57   28   30 1    
    58   30   31 1    
    59   30   32 1    
    60   30   92 1    
    61   31   93 1    
    62   31   94 1    
    63   31   95 1    
    64   32   33 am   BACKBONE|DICT|INTERRES
    65   32   96 1    
    66   33   34 2    
    67   33   35 1    
    68   35   36 1    
    69   35   37 1    
    70   35   97 1    
    71   36   98 1    
    72   36   99 1    
    73   36  100 1    
    74   37   38 am   BACKBONE|DICT|INTERRES
    75   37  101 1    
    76   38   39 2    
    77   38   40 1    
    78   40   41 1    
    79   40   42 1    
    80   40  102 1    
    81   41  103 1    
    82   41  104 1    
    83   41  105 1    
    84   42   43 am   BACKBONE|DICT|INTERRES
    85   42  106 1    
    86   43   44 2    
    87   43   45 1    
    88   45   46 1    
    89   45   49 1    
    90   45  107 1    
    91   46   47 1    
    92   46  108 1    
    93   46  109 1    
    94   47   48 1    
    95   48  110 1    
    96   48  111 1    
    97   49   50 am   BACKBONE|DICT|INTERRES
    98   49  112 1    
    99   50   51 2    
   100   50   52 1    
   101   52   53 1    
   102   52   54 1    
   103   52  113 1    
   104   53  114 1    
   105   53  115 1    
   106   53  116 1    
   107   54   55 am   BACKBONE|DICT|INTERRES
   108   54  117 1    
   109   55   56 2    
   110   55   57 1    
   111   57   58 1    
   112   57   59 1    
   113   57  118 1    
   114   58  119 1    
   115   58  120 1    
   116   58  121 1    
   117   59   60 am   BACKBONE|DICT|INTERRES
   118   59  122 1    
   119   60   61 2    
   120   60   62 1    
   121   62   63 1    
   122   62   64 1    
   123   62  123 1    
   124   63  124 1    
   125   63  125 1    
   126   63  126 1    
   127   64   65 am   BACKBONE|DICT|INTERRES
   128   64  127 1    
   129   65   66 2    
@<TRIPOS>SUBSTRUCTURE
     1 UNK         1 GROUP             0       ****    0 ROOT    
