@<TRIPOS>MOLECULE
3R135
127   129    1
SMALL
USER_CHARGES


@<TRIPOS>ATOM
      1 CA        -81.0728   29.6223  -76.7449 C.3       0 UNK        -0.1998 
      2 C         -80.1940   28.5919  -76.0546 C.2       0 UNK         0.4909 
      3 O         -80.5116   27.4027  -76.0866 O.2       0 UNK        -0.5240 
      4 N         -79.0788   29.0331  -75.4539 N.am      1 UNK        -0.4739 
      5 CA        -78.1282   28.2224  -74.6717 C.3       1 UNK         0.0864 
      6 C6        -78.7036   27.7859  -73.2964 C.3       11 UNK        -0.0881 
      7 S7        -79.1592   29.2314  -72.2646 S.3       11 UNK        -0.2682 
      8 C8        -79.0534   28.5994  -70.5529 C.3       11 UNK         0.0289 
      9 C9        -77.6854   28.0071  -70.2533 C.ar      11 UNK        -0.0687 
     10 C10       -77.5439   26.6282  -70.0927 C.ar      11 UNK        -0.0823 
     11 C11       -76.2752   26.0420  -70.0024 C.ar      11 UNK        -0.0830 
     12 C12       -75.1492   26.8745  -69.9920 C.ar      11 UNK        -0.1021 
     13 C13       -75.2811   28.2638  -70.0979 C.ar      11 UNK        -0.0753 
     14 C14       -76.5553   28.8242  -70.2135 C.ar      11 UNK        -0.0933 
     15 C15       -74.0493   29.1586  -70.1180 C.3       11 UNK         0.0166 
     16 S16       -73.5384   29.5734  -71.8185 S.3       11 UNK        -0.2615 
     17 C17       -74.8036   30.8072  -72.2884 C.3       11 UNK        -0.0865 
     18 CA        -74.4342   31.6523  -73.5330 C.3       10 UNK         0.0862 
     19 C         -73.2288   32.6059  -73.2732 C.2       10 UNK         0.5551 
     20 N         -72.1084   32.4792  -73.9759 N.am      10 UNK        -0.7319 
     21 O         -73.3222   33.4895  -72.4246 O.2       10 UNK        -0.5018 
     22 N         -74.3128   30.8104  -74.7307 N.am      10 UNK        -0.4509 
     23 C         -74.4316   31.2531  -75.9884 C.2       10 UNK         0.4899 
     24 O         -74.7885   32.3968  -76.2752 O.2       10 UNK        -0.4839 
     25 CA        -74.1056   30.2505  -77.1154 C.3       9 UNK         0.0222 
     26 CB        -73.6031   30.9506  -78.3948 C.3       9 UNK        -0.1966 
     27 N         -73.1777   29.1769  -76.7306 N.am      9 UNK        -0.4218 
     28 C         -71.9408   29.2879  -76.2252 C.2       9 UNK         0.5020 
     29 O         -71.4121   30.3661  -75.9465 O.2       9 UNK        -0.5274 
     30 CA        -71.1884   27.9641  -75.9631 C.3       8 UNK         0.0270 
     31 CB        -69.7973   28.1910  -75.3410 C.3       8 UNK        -0.1976 
     32 N         -71.9386   27.0305  -75.1130 N.am      8 UNK        -0.4313 
     33 C         -73.0187   26.3306  -75.4827 C.2       8 UNK         0.5041 
     34 O         -73.5278   26.4172  -76.6030 O.2       8 UNK        -0.5577 
     35 CA        -73.6561   25.4386  -74.4061 C.3       7 UNK         0.0284 
     36 CB        -74.2954   26.2904  -73.3004 C.3       7 UNK        -0.1958 
     37 N         -74.6877   24.5679  -74.9655 N.am      7 UNK        -0.4454 
     38 C         -74.4579   23.4056  -75.5907 C.2       7 UNK         0.5089 
     39 O         -73.3332   22.9302  -75.7597 O.2       7 UNK        -0.5125 
     40 CA        -75.7043   22.6444  -76.0927 C.3       6 UNK         0.0408 
     41 CB        -75.4462   21.1389  -76.3144 C.3       6 UNK        -0.1791 
     42 N         -76.8826   22.8659  -75.2413 N.am      6 UNK        -0.4762 
     43 C         -77.0068   22.5490  -73.9412 C.2       6 UNK         0.5007 
     44 O         -76.1769   21.8851  -73.3194 O.2       6 UNK        -0.5032 
     45 CA        -78.2438   23.0855  -73.1957 C.3       5 UNK         0.0783 
     46 C46       -77.8502   24.1663  -72.1561 C.3       11 UNK        -0.0857 
     47 S47       -77.4948   23.4998  -70.4934 S.3       11 UNK        -0.2512 
     48 C48       -76.0725   24.5227  -69.9523 C.3       11 UNK         0.0225 
     49 N         -79.2563   23.6263  -74.1131 N.am      5 UNK        -0.4615 
     50 C         -80.5005   23.1449  -74.2244 C.2       4 UNK         0.5053 
     51 O         -80.8877   22.1096  -73.6816 O.2       4 UNK        -0.5105 
     52 CA        -81.5030   23.9678  -75.0468 C.3       4 UNK         0.0263 
     53 CB        -82.1739   25.0317  -74.1629 C.3       4 UNK        -0.1981 
     54 N         -80.9102   24.6181  -76.2151 N.am      4 UNK        -0.4224 
     55 C         -80.6565   23.9923  -77.3722 C.2       3 UNK         0.4895 
     56 O         -80.8066   22.7830  -77.5483 O.2       3 UNK        -0.5091 
     57 CA        -80.1669   24.8669  -78.5328 C.3       3 UNK         0.0250 
     58 CB        -81.3070   25.7428  -79.0812 C.3       3 UNK        -0.1996 
     59 N         -79.0520   25.7147  -78.1139 N.am      3 UNK        -0.4254 
     60 C         -77.7629   25.3837  -78.2612 C.2       2 UNK         0.5004 
     61 O         -77.3854   24.3424  -78.7975 O.2       2 UNK        -0.5226 
     62 CA        -76.7043   26.3720  -77.7415 C.3       2 UNK         0.0269 
     63 CB        -76.0636   27.1321  -78.9147 C.3       2 UNK        -0.1926 
     64 N         -77.2135   27.3380  -76.7640 N.am      2 UNK        -0.4687 
     65 C         -77.5451   27.0490  -75.4975 C.2       1 UNK         0.5165 
     66 O         -77.4346   25.9205  -75.0104 O.2       1 UNK        -0.5079 
     67 H67       -80.6687   30.6302  -76.6547 H         1 UNK         0.0900 
     68 H68       -82.0696   29.6151  -76.3053 H         1 UNK         0.0900 
     69 H69       -81.1659   29.3855  -77.8043 H         1 UNK         0.0900 
     70 H70       -78.8807   30.0240  -75.4692 H         1 UNK         0.2959 
     71 H71       -77.2730   28.8692  -74.4676 H         1 UNK         0.1079 
     72 H72       -79.5789   27.1486  -73.4227 H         1 UNK         0.0837 
     73 H73       -77.9618   27.1893  -72.7668 H         1 UNK         0.0837 
     74 H74       -79.2545   29.4160  -69.8581 H         1 UNK         0.0685 
     75 H75       -79.8423   27.8615  -70.3992 H         1 UNK         0.0685 
     76 H76       -78.4320   26.0145  -70.0933 H         1 UNK         0.1434 
     77 H77       -74.1618   26.4381  -69.9244 H         1 UNK         0.1329 
     78 H78       -76.6695   29.8935  -70.3206 H         1 UNK         0.1335 
     79 H79       -74.2357   30.0727  -69.5523 H         1 UNK         0.0680 
     80 H80       -73.2187   28.6580  -69.6181 H         1 UNK         0.0680 
     81 H81       -75.0005   31.4625  -71.4378 H         1 UNK         0.1032 
     82 H82       -75.7392   30.2811  -72.4825 H         1 UNK         0.1032 
     83 H83       -75.2834   32.3165  -73.7062 H         1 UNK         0.0461 
     84 H84       -71.3427   33.1085  -73.7976 H         1 UNK         0.3453 
     85 H85       -72.0052   31.7463  -74.6710 H         1 UNK         0.3453 
     86 H86       -73.9769   29.8720  -74.5751 H         1 UNK         0.2984 
     87 H87       -75.0506   29.7626  -77.3549 H         1 UNK         0.0554 
     88 H88       -73.4118   30.2317  -79.1914 H         1 UNK         0.0847 
     89 H89       -72.6812   31.5044  -78.2139 H         1 UNK         0.0847 
     90 H90       -74.3403   31.6597  -78.7736 H         1 UNK         0.0847 
     91 H91       -73.5084   28.2217  -76.8721 H         1 UNK         0.3141 
     92 H92       -71.0400   27.4914  -76.9364 H         1 UNK         0.0743 
     93 H93       -69.8661   28.6635  -74.3602 H         1 UNK         0.0784 
     94 H94       -69.2548   27.2524  -75.2258 H         1 UNK         0.0784 
     95 H95       -69.1869   28.8382  -75.9724 H         1 UNK         0.0784 
     96 H96       -71.6079   26.9356  -74.1633 H         1 UNK         0.3213 
     97 H97       -72.8737   24.8177  -73.9639 H         1 UNK         0.0855 
     98 H98       -74.8249   25.6666  -72.5830 H         1 UNK         0.0814 
     99 H99       -75.0032   27.0194  -73.6960 H         1 UNK         0.0814 
    100 H100      -73.5364   26.8362  -72.7415 H         1 UNK         0.0814 
    101 H101      -75.6422   24.9067  -74.9163 H         1 UNK         0.3105 
    102 H102      -75.9424   23.0749  -77.0638 H         1 UNK         0.0547 
    103 H103      -74.6716   20.9837  -77.0662 H         1 UNK         0.0837 
    104 H104      -75.1135   20.6430  -75.4024 H         1 UNK         0.0837 
    105 H105      -76.3434   20.6302  -76.6664 H         1 UNK         0.0837 
    106 H106      -77.6233   23.4126  -75.6563 H         1 UNK         0.3020 
    107 H107      -78.6578   22.2276  -72.6610 H         1 UNK         0.1245 
    108 H108      -78.6802   24.8617  -72.0263 H         1 UNK         0.0781 
    109 H109      -77.0176   24.7778  -72.5077 H         1 UNK         0.0781 
    110 H110      -75.2133   24.2511  -70.5675 H         1 UNK         0.0836 
    111 H111      -75.8176   24.2422  -68.9296 H         1 UNK         0.0836 
    112 H112      -79.0132   24.4919  -74.5797 H         1 UNK         0.3022 
    113 H113      -82.2823   23.2844  -75.3921 H         1 UNK         0.0747 
    114 H114      -82.9471   25.5706  -74.7109 H         1 UNK         0.0793 
    115 H115      -82.6504   24.5756  -73.2940 H         1 UNK         0.0793 
    116 H116      -81.4559   25.7644  -73.7949 H         1 UNK         0.0793 
    117 H117      -80.7706   25.6269  -76.1582 H         1 UNK         0.3047 
    118 H118      -79.8471   24.2030  -79.3393 H         1 UNK         0.0822 
    119 H119      -80.9775   26.3244  -79.9423 H         1 UNK         0.0807 
    120 H120      -81.6872   26.4403  -78.3342 H         1 UNK         0.0807 
    121 H121      -82.1464   25.1279  -79.4086 H         1 UNK         0.0807 
    122 H122      -79.2883   26.5597  -77.6086 H         1 UNK         0.2946 
    123 H123      -75.9299   25.7723  -77.2616 H         1 UNK         0.1144 
    124 H124      -75.6933   26.4405  -79.6730 H         1 UNK         0.0793 
    125 H125      -75.2097   27.7223  -78.5850 H         1 UNK         0.0793 
    126 H126      -76.7733   27.8015  -79.4020 H         1 UNK         0.0793 
    127 H127      -77.3678   28.2796  -77.0945 H         1 UNK         0.2896 
@<TRIPOS>BOND
     1    1    2 1    
     2    1   67 1    
     3    1   68 1    
     4    1   69 1    
     5    2    3 2    
     6    2    4 am   BACKBONE|DICT|INTERRES
     7    4    5 1    
     8    4   70 1    
     9    5    6 1    
    10    5   65 1    
    11    5   71 1    
    12    6    7 1    
    13    6   72 1    
    14    6   73 1    
    15    7    8 1    
    16    8    9 1    
    17    8   74 1    
    18    8   75 1    
    19    9   10 ar   
    20    9   14 ar   
    21   10   11 ar   
    22   10   76 1    
    23   11   12 ar   
    24   11   48 1    
    25   12   13 ar   
    26   12   77 1    
    27   13   14 ar   
    28   13   15 1    
    29   14   78 1    
    30   15   16 1    
    31   15   79 1    
    32   15   80 1    
    33   16   17 1    
    34   17   18 1    
    35   17   81 1    
    36   17   82 1    
    37   18   19 1    
    38   18   22 1    
    39   18   83 1    
    40   19   20 am   BACKBONE|DICT|INTERRES
    41   19   21 2    
    42   20   84 1    
    43   20   85 1    
    44   22   23 am   BACKBONE|DICT|INTERRES
    45   22   86 1    
    46   23   24 2    
    47   23   25 1    
    48   25   26 1    
    49   25   27 1    
    50   25   87 1    
    51   26   88 1    
    52   26   89 1    
    53   26   90 1    
    54   27   28 am   BACKBONE|DICT|INTERRES
    55   27   91 1    
    56   28   29 2    
    57   28   30 1    
    58   30   31 1    
    59   30   32 1    
    60   30   92 1    
    61   31   93 1    
    62   31   94 1    
    63   31   95 1    
    64   32   33 am   BACKBONE|DICT|INTERRES
    65   32   96 1    
    66   33   34 2    
    67   33   35 1    
    68   35   36 1    
    69   35   37 1    
    70   35   97 1    
    71   36   98 1    
    72   36   99 1    
    73   36  100 1    
    74   37   38 am   BACKBONE|DICT|INTERRES
    75   37  101 1    
    76   38   39 2    
    77   38   40 1    
    78   40   41 1    
    79   40   42 1    
    80   40  102 1    
    81   41  103 1    
    82   41  104 1    
    83   41  105 1    
    84   42   43 am   BACKBONE|DICT|INTERRES
    85   42  106 1    
    86   43   44 2    
    87   43   45 1    
    88   45   46 1    
    89   45   49 1    
    90   45  107 1    
    91   46   47 1    
    92   46  108 1    
    93   46  109 1    
    94   47   48 1    
    95   48  110 1    
    96   48  111 1    
    97   49   50 am   BACKBONE|DICT|INTERRES
    98   49  112 1    
    99   50   51 2    
   100   50   52 1    
   101   52   53 1    
   102   52   54 1    
   103   52  113 1    
   104   53  114 1    
   105   53  115 1    
   106   53  116 1    
   107   54   55 am   BACKBONE|DICT|INTERRES
   108   54  117 1    
   109   55   56 2    
   110   55   57 1    
   111   57   58 1    
   112   57   59 1    
   113   57  118 1    
   114   58  119 1    
   115   58  120 1    
   116   58  121 1    
   117   59   60 am   BACKBONE|DICT|INTERRES
   118   59  122 1    
   119   60   61 2    
   120   60   62 1    
   121   62   63 1    
   122   62   64 1    
   123   62  123 1    
   124   63  124 1    
   125   63  125 1    
   126   63  126 1    
   127   64   65 am   BACKBONE|DICT|INTERRES
   128   64  127 1    
   129   65   66 2    
@<TRIPOS>SUBSTRUCTURE
     1 UNK         1 GROUP             0       ****    0 ROOT    
