@<TRIPOS>MOLECULE
3R135
127   129    1
SMALL
USER_CHARGES


@<TRIPOS>ATOM
      1 CA        -85.2330   27.8318  -73.2892 C.3       0 UNK        -0.1998 
      2 C         -83.7373   27.8630  -73.5645 C.2       0 UNK         0.4909 
      3 O         -83.2649   28.7433  -74.2839 O.2       0 UNK        -0.5240 
      4 N         -82.9882   26.9057  -73.0010 N.am      1 UNK        -0.4739 
      5 CA        -81.5290   26.7927  -73.1445 C.3       1 UNK         0.0864 
      6 C6        -80.8925   25.9929  -71.9814 C.3       11 UNK        -0.0881 
      7 S7        -81.1343   26.8427  -70.3837 S.3       11 UNK        -0.2682 
      8 C8        -79.4256   26.9910  -69.7504 C.3       11 UNK         0.0289 
      9 C9        -78.4656   27.8310  -70.5967 C.ar      11 UNK        -0.0687 
     10 C10       -78.9035   28.8666  -71.4341 C.ar      11 UNK        -0.0823 
     11 C11       -77.9919   29.6116  -72.1912 C.ar      11 UNK        -0.0830 
     12 C12       -76.6265   29.3337  -72.0818 C.ar      11 UNK        -0.1021 
     13 C13       -76.1723   28.3146  -71.2419 C.ar      11 UNK        -0.0753 
     14 C14       -77.0947   27.5709  -70.5025 C.ar      11 UNK        -0.0933 
     15 C15       -74.6851   28.0178  -71.1469 C.3       11 UNK         0.0166 
     16 S16       -73.8038   29.3708  -70.3066 S.3       11 UNK        -0.2615 
     17 C17       -72.0629   28.9260  -70.6200 C.3       11 UNK        -0.0865 
     18 CA        -71.4777   29.6772  -71.8445 C.3       10 UNK         0.0862 
     19 C         -69.9450   29.4602  -71.9417 C.2       10 UNK         0.5551 
     20 N         -69.1492   30.4803  -71.6528 N.am      10 UNK        -0.7319 
     21 O         -69.4773   28.3605  -72.2291 O.2       10 UNK        -0.5018 
     22 N         -72.1481   29.2639  -73.0816 N.am      10 UNK        -0.4509 
     23 C         -72.1133   29.9148  -74.2496 C.2       10 UNK         0.4899 
     24 O         -71.5736   31.0103  -74.4111 O.2       10 UNK        -0.4839 
     25 CA        -72.8175   29.2081  -75.4271 C.3       9 UNK         0.0222 
     26 CB        -72.4195   29.7791  -76.8045 C.3       9 UNK        -0.1966 
     27 N         -72.6514   27.7475  -75.3890 N.am      9 UNK        -0.4218 
     28 C         -71.4934   27.0690  -75.4501 C.2       9 UNK         0.5020 
     29 O         -70.3920   27.5856  -75.6395 O.2       9 UNK        -0.5274 
     30 CA        -71.5800   25.5517  -75.2561 C.3       8 UNK         0.0270 
     31 CB        -71.7987   25.2021  -73.7725 C.3       8 UNK        -0.1976 
     32 N         -72.6562   24.9811  -76.0682 N.am      8 UNK        -0.4313 
     33 C         -72.4586   24.3125  -77.2113 C.2       8 UNK         0.5041 
     34 O         -71.3491   24.0973  -77.7021 O.2       8 UNK        -0.5577 
     35 CA        -73.7042   23.7679  -77.9244 C.3       7 UNK         0.0284 
     36 CB        -74.2113   22.4939  -77.2278 C.3       7 UNK        -0.1958 
     37 N         -74.7950   24.7381  -78.0262 N.am      7 UNK        -0.4454 
     38 C         -74.7969   25.8040  -78.8393 C.2       7 UNK         0.5089 
     39 O         -73.8357   26.1443  -79.5291 O.2       7 UNK        -0.5125 
     40 CA        -76.1020   26.6112  -78.9175 C.3       6 UNK         0.0408 
     41 CB        -77.1577   25.8575  -79.7430 C.3       6 UNK        -0.1791 
     42 N         -76.6341   26.8854  -77.5843 N.am      6 UNK        -0.4762 
     43 C         -76.3993   28.0073  -76.8884 C.2       6 UNK         0.5007 
     44 O         -75.7767   28.9688  -77.3382 O.2       6 UNK        -0.5032 
     45 CA        -76.9274   28.0638  -75.4383 C.3       5 UNK         0.0783 
     46 C46       -78.1949   28.9542  -75.3130 C.3       11 UNK        -0.0857 
     47 S47       -77.7866   30.6561  -74.7995 S.3       11 UNK        -0.2512 
     48 C48       -78.4898   30.7240  -73.1119 C.3       11 UNK         0.0225 
     49 N         -77.1245   26.7297  -74.8600 N.am      5 UNK        -0.4615 
     50 C         -76.1194   25.9104  -74.5270 C.2       4 UNK         0.5053 
     51 O         -74.9317   26.1928  -74.6968 O.2       4 UNK        -0.5105 
     52 CA        -76.4767   24.5358  -73.9394 C.3       4 UNK         0.0263 
     53 CB        -76.6191   24.6298  -72.4136 C.3       4 UNK        -0.1981 
     54 N         -77.6720   23.8983  -74.5026 N.am      4 UNK        -0.4224 
     55 C         -77.8544   23.5897  -75.7947 C.2       3 UNK         0.4895 
     56 O         -77.0993   23.9501  -76.6965 O.2       3 UNK        -0.5091 
     57 CA        -79.0823   22.7285  -76.1343 C.3       3 UNK         0.0250 
     58 CB        -79.2183   21.5058  -75.2075 C.3       3 UNK        -0.1996 
     59 N         -80.3030   23.5276  -76.0816 N.am      3 UNK        -0.4254 
     60 C         -80.6863   24.3845  -77.0370 C.2       2 UNK         0.5004 
     61 O         -80.1364   24.4847  -78.1341 O.2       2 UNK        -0.5226 
     62 CA        -81.8786   25.3032  -76.7125 C.3       2 UNK         0.0269 
     63 CB        -83.1899   24.6772  -77.2149 C.3       2 UNK        -0.1926 
     64 N         -82.0369   25.6810  -75.2995 N.am      2 UNK        -0.4687 
     65 C         -81.0956   26.2283  -74.5132 C.2       1 UNK         0.5165 
     66 O         -79.9102   26.3056  -74.8294 O.2       1 UNK        -0.5079 
     67 H67       -85.5110   27.0029  -72.6386 H         1 UNK         0.0900 
     68 H68       -85.7847   27.7300  -74.2234 H         1 UNK         0.0900 
     69 H69       -85.5446   28.7588  -72.8085 H         1 UNK         0.0900 
     70 H70       -83.4240   26.2195  -72.4008 H         1 UNK         0.2959 
     71 H71       -81.1157   27.8028  -73.1149 H         1 UNK         0.1079 
     72 H72       -81.3218   24.9916  -71.9167 H         1 UNK         0.0837 
     73 H73       -79.8230   25.8545  -72.1481 H         1 UNK         0.0837 
     74 H74       -79.0254   25.9830  -69.6284 H         1 UNK         0.0685 
     75 H75       -79.4686   27.4268  -68.7516 H         1 UNK         0.0685 
     76 H76       -79.9566   29.0996  -71.4955 H         1 UNK         0.1434 
     77 H77       -75.9120   29.9129  -72.6506 H         1 UNK         0.1329 
     78 H78       -76.7432   26.7836  -69.8495 H         1 UNK         0.1335 
     79 H79       -74.5058   27.0851  -70.6097 H         1 UNK         0.0680 
     80 H80       -74.2945   27.8749  -72.1541 H         1 UNK         0.0680 
     81 H81       -71.5005   29.1800  -69.7192 H         1 UNK         0.1032 
     82 H82       -71.9664   27.8446  -70.7364 H         1 UNK         0.1032 
     83 H83       -71.6664   30.7442  -71.7062 H         1 UNK         0.0461 
     84 H84       -68.1504   30.3505  -71.6944 H         1 UNK         0.3453 
     85 H85       -69.5274   31.3832  -71.4108 H         1 UNK         0.3453 
     86 H86       -72.5764   28.3527  -73.0638 H         1 UNK         0.2984 
     87 H87       -73.8829   29.3956  -75.2925 H         1 UNK         0.0554 
     88 H88       -72.6840   30.8343  -76.8796 H         1 UNK         0.0847 
     89 H89       -72.9365   29.2594  -77.6115 H         1 UNK         0.0847 
     90 H90       -71.3473   29.6992  -76.9850 H         1 UNK         0.0847 
     91 H91       -73.4993   27.2139  -75.2054 H         1 UNK         0.3141 
     92 H92       -70.6173   25.1277  -75.5503 H         1 UNK         0.0743 
     93 H93       -71.0017   25.6194  -73.1549 H         1 UNK         0.0784 
     94 H94       -72.7423   25.5886  -73.3879 H         1 UNK         0.0784 
     95 H95       -71.7949   24.1230  -73.6189 H         1 UNK         0.0784 
     96 H96       -73.6047   25.1549  -75.7527 H         1 UNK         0.3213 
     97 H97       -73.4074   23.4960  -78.9400 H         1 UNK         0.0855 
     98 H98       -74.5507   22.6946  -76.2111 H         1 UNK         0.0814 
     99 H99       -73.4235   21.7418  -77.1669 H         1 UNK         0.0814 
    100 H100      -75.0428   22.0483  -77.7742 H         1 UNK         0.0814 
    101 H101      -75.6504   24.5101  -77.5193 H         1 UNK         0.3105 
    102 H102      -75.8873   27.5492  -79.4341 H         1 UNK         0.0547 
    103 H103      -76.7869   25.6387  -80.7451 H         1 UNK         0.0837 
    104 H104      -77.4364   24.9083  -79.2832 H         1 UNK         0.0837 
    105 H105      -78.0668   26.4484  -79.8554 H         1 UNK         0.0837 
    106 H106      -77.1238   26.1254  -77.1269 H         1 UNK         0.3020 
    107 H107      -76.1296   28.5231  -74.8515 H         1 UNK         0.1245 
    108 H108      -78.8767   28.5513  -74.5665 H         1 UNK         0.0781 
    109 H109      -78.7725   28.9831  -76.2391 H         1 UNK         0.0781 
    110 H110      -78.2391   31.6870  -72.6655 H         1 UNK         0.0836 
    111 H111      -79.5777   30.6975  -73.1932 H         1 UNK         0.0836 
    112 H112      -78.0900   26.4284  -74.7394 H         1 UNK         0.3022 
    113 H113      -75.6349   23.8747  -74.1548 H         1 UNK         0.0747 
    114 H114      -75.7361   25.0879  -71.9656 H         1 UNK         0.0793 
    115 H115      -76.7338   23.6443  -71.9621 H         1 UNK         0.0793 
    116 H116      -77.4806   25.2333  -72.1286 H         1 UNK         0.0793 
    117 H117      -78.3648   23.5872  -73.8391 H         1 UNK         0.3047 
    118 H118      -78.9459   22.3564  -77.1524 H         1 UNK         0.0822 
    119 H119      -78.2922   20.9294  -75.1828 H         1 UNK         0.0807 
    120 H120      -80.0025   20.8355  -75.5601 H         1 UNK         0.0807 
    121 H121      -79.4608   21.7829  -74.1812 H         1 UNK         0.0807 
    122 H122      -80.8193   23.5287  -75.2145 H         1 UNK         0.2946 
    123 H123      -81.7111   26.2296  -77.2664 H         1 UNK         0.1144 
    124 H124      -83.1158   24.4065  -78.2693 H         1 UNK         0.0793 
    125 H125      -84.0246   25.3721  -77.1204 H         1 UNK         0.0793 
    126 H126      -83.4412   23.7709  -76.6626 H         1 UNK         0.0793 
    127 H127      -82.9773   25.6517  -74.9333 H         1 UNK         0.2896 
@<TRIPOS>BOND
     1    1    2 1    
     2    1   67 1    
     3    1   68 1    
     4    1   69 1    
     5    2    3 2    
     6    2    4 am   BACKBONE|DICT|INTERRES
     7    4    5 1    
     8    4   70 1    
     9    5    6 1    
    10    5   65 1    
    11    5   71 1    
    12    6    7 1    
    13    6   72 1    
    14    6   73 1    
    15    7    8 1    
    16    8    9 1    
    17    8   74 1    
    18    8   75 1    
    19    9   10 ar   
    20    9   14 ar   
    21   10   11 ar   
    22   10   76 1    
    23   11   12 ar   
    24   11   48 1    
    25   12   13 ar   
    26   12   77 1    
    27   13   14 ar   
    28   13   15 1    
    29   14   78 1    
    30   15   16 1    
    31   15   79 1    
    32   15   80 1    
    33   16   17 1    
    34   17   18 1    
    35   17   81 1    
    36   17   82 1    
    37   18   19 1    
    38   18   22 1    
    39   18   83 1    
    40   19   20 am   BACKBONE|DICT|INTERRES
    41   19   21 2    
    42   20   84 1    
    43   20   85 1    
    44   22   23 am   BACKBONE|DICT|INTERRES
    45   22   86 1    
    46   23   24 2    
    47   23   25 1    
    48   25   26 1    
    49   25   27 1    
    50   25   87 1    
    51   26   88 1    
    52   26   89 1    
    53   26   90 1    
    54   27   28 am   BACKBONE|DICT|INTERRES
    55   27   91 1    
    56   28   29 2    
    57   28   30 1    
    58   30   31 1    
    59   30   32 1    
    60   30   92 1    
    61   31   93 1    
    62   31   94 1    
    63   31   95 1    
    64   32   33 am   BACKBONE|DICT|INTERRES
    65   32   96 1    
    66   33   34 2    
    67   33   35 1    
    68   35   36 1    
    69   35   37 1    
    70   35   97 1    
    71   36   98 1    
    72   36   99 1    
    73   36  100 1    
    74   37   38 am   BACKBONE|DICT|INTERRES
    75   37  101 1    
    76   38   39 2    
    77   38   40 1    
    78   40   41 1    
    79   40   42 1    
    80   40  102 1    
    81   41  103 1    
    82   41  104 1    
    83   41  105 1    
    84   42   43 am   BACKBONE|DICT|INTERRES
    85   42  106 1    
    86   43   44 2    
    87   43   45 1    
    88   45   46 1    
    89   45   49 1    
    90   45  107 1    
    91   46   47 1    
    92   46  108 1    
    93   46  109 1    
    94   47   48 1    
    95   48  110 1    
    96   48  111 1    
    97   49   50 am   BACKBONE|DICT|INTERRES
    98   49  112 1    
    99   50   51 2    
   100   50   52 1    
   101   52   53 1    
   102   52   54 1    
   103   52  113 1    
   104   53  114 1    
   105   53  115 1    
   106   53  116 1    
   107   54   55 am   BACKBONE|DICT|INTERRES
   108   54  117 1    
   109   55   56 2    
   110   55   57 1    
   111   57   58 1    
   112   57   59 1    
   113   57  118 1    
   114   58  119 1    
   115   58  120 1    
   116   58  121 1    
   117   59   60 am   BACKBONE|DICT|INTERRES
   118   59  122 1    
   119   60   61 2    
   120   60   62 1    
   121   62   63 1    
   122   62   64 1    
   123   62  123 1    
   124   63  124 1    
   125   63  125 1    
   126   63  126 1    
   127   64   65 am   BACKBONE|DICT|INTERRES
   128   64  127 1    
   129   65   66 2    
@<TRIPOS>SUBSTRUCTURE
     1 UNK         1 GROUP             0       ****    0 ROOT    
