@<TRIPOS>MOLECULE
3R135
127   129    1
SMALL
USER_CHARGES


@<TRIPOS>ATOM
      1 CA        -81.5975   31.4077  -75.8205 C.3       0 UNK        -0.1998 
      2 C         -81.0431   30.4865  -74.7438 C.2       0 UNK         0.4909 
      3 O         -79.9795   30.7665  -74.1939 O.2       0 UNK        -0.5240 
      4 N         -81.7586   29.3967  -74.4488 N.am      1 UNK        -0.4739 
      5 CA        -81.3767   28.3409  -73.5061 C.3       1 UNK         0.0864 
      6 C6        -82.1876   28.4069  -72.1850 C.3       11 UNK        -0.0881 
      7 S7        -81.9087   29.9515  -71.2559 S.3       11 UNK        -0.2682 
      8 C8        -80.8588   29.3869  -69.8785 C.3       11 UNK         0.0289 
      9 C9        -79.4702   28.9359  -70.3196 C.ar      11 UNK        -0.0687 
     10 C10       -79.0212   27.6465  -70.0160 C.ar      11 UNK        -0.0823 
     11 C11       -77.7199   27.2447  -70.3374 C.ar      11 UNK        -0.0830 
     12 C12       -76.8675   28.1525  -70.9792 C.ar      11 UNK        -0.1021 
     13 C13       -77.3063   29.4392  -71.3005 C.ar      11 UNK        -0.0753 
     14 C14       -78.6084   29.8255  -70.9694 C.ar      11 UNK        -0.0933 
     15 C15       -76.3586   30.4196  -71.9734 C.3       11 UNK         0.0166 
     16 S16       -76.3723   30.2149  -73.7782 S.3       11 UNK        -0.2615 
     17 C17       -75.1760   31.4940  -74.2917 C.3       11 UNK        -0.0865 
     18 CA        -73.9790   30.9309  -75.1039 C.3       10 UNK         0.0862 
     19 C         -73.0815   32.1030  -75.5909 C.2       10 UNK         0.5551 
     20 N         -73.2776   32.5688  -76.8167 N.am      10 UNK        -0.7319 
     21 O         -72.2510   32.6232  -74.8479 O.2       10 UNK        -0.5018 
     22 N         -73.2423   29.9073  -74.3443 N.am      10 UNK        -0.4509 
     23 C         -72.1656   29.2302  -74.7683 C.2       10 UNK         0.4899 
     24 O         -71.6535   29.3725  -75.8794 O.2       10 UNK        -0.4839 
     25 CA        -71.5379   28.2196  -73.7952 C.3       9 UNK         0.0222 
     26 CB        -72.1328   28.2535  -72.3704 C.3       9 UNK        -0.1966 
     27 N         -71.7171   26.8825  -74.3516 N.am      9 UNK        -0.4218 
     28 C         -70.7475   26.0650  -74.7763 C.2       9 UNK         0.5020 
     29 O         -69.5454   26.3322  -74.7279 O.2       9 UNK        -0.5274 
     30 CA        -71.1933   24.7022  -75.3354 C.3       8 UNK         0.0270 
     31 CB        -71.5711   23.7448  -74.1927 C.3       8 UNK        -0.1976 
     32 N         -72.3086   24.8010  -76.2811 N.am      8 UNK        -0.4313 
     33 C         -72.2159   25.3155  -77.5161 C.2       8 UNK         0.5041 
     34 O         -71.1693   25.7451  -78.0032 O.2       8 UNK        -0.5577 
     35 CA        -73.5029   25.3476  -78.3593 C.3       7 UNK         0.0284 
     36 CB        -73.7800   23.9752  -78.9941 C.3       7 UNK        -0.1958 
     37 N         -74.6633   25.7796  -77.5792 N.am      7 UNK        -0.4454 
     38 C         -74.8712   27.0427  -77.1818 C.2       7 UNK         0.5089 
     39 O         -74.1775   27.9934  -77.5401 O.2       7 UNK        -0.5125 
     40 CA        -76.0366   27.2950  -76.2106 C.3       6 UNK         0.0408 
     41 CB        -77.3199   27.6612  -76.9711 C.3       6 UNK        -0.1791 
     42 N         -76.3056   26.1690  -75.3154 N.am      6 UNK        -0.4762 
     43 C         -75.4681   25.7202  -74.3710 C.2       6 UNK         0.5007 
     44 O         -74.3791   26.2345  -74.1275 O.2       6 UNK        -0.5032 
     45 CA        -75.8791   24.4339  -73.6301 C.3       5 UNK         0.0783 
     46 C46       -76.8332   24.7121  -72.4443 C.3       11 UNK        -0.0857 
     47 S47       -75.9174   25.1385  -70.9311 S.3       11 UNK        -0.2512 
     48 C48       -77.2499   25.8535  -69.9102 C.3       11 UNK         0.0225 
     49 N         -76.4328   23.4441  -74.5548 N.am      5 UNK        -0.4615 
     50 C         -75.7151   22.7863  -75.4738 C.2       4 UNK         0.5053 
     51 O         -74.5034   22.9359  -75.6281 O.2       4 UNK        -0.5105 
     52 CA        -76.4866   21.8277  -76.3955 C.3       4 UNK         0.0263 
     53 CB        -76.6408   20.4495  -75.7336 C.3       4 UNK        -0.1981 
     54 N         -77.8060   22.3460  -76.7683 N.am      4 UNK        -0.4224 
     55 C         -77.9945   23.4139  -77.5561 C.2       3 UNK         0.4895 
     56 O         -77.0791   24.0497  -78.0784 O.2       3 UNK        -0.5091 
     57 CA        -79.4473   23.8764  -77.7607 C.3       3 UNK         0.0250 
     58 CB        -80.1405   23.0248  -78.8365 C.3       3 UNK        -0.1996 
     59 N         -80.2610   23.8875  -76.5367 N.am      3 UNK        -0.4254 
     60 C         -79.9636   24.5833  -75.4304 C.2       2 UNK         0.5004 
     61 O         -78.9053   25.1912  -75.2671 O.2       2 UNK        -0.5226 
     62 CA        -81.0013   24.5947  -74.2986 C.3       2 UNK         0.0269 
     63 CB        -80.6680   23.5274  -73.2445 C.3       2 UNK        -0.1926 
     64 N         -81.0215   25.9150  -73.6619 N.am      2 UNK        -0.4687 
     65 C         -81.6012   26.9901  -74.2113 C.2       1 UNK         0.5165 
     66 O         -82.3056   26.9337  -75.2252 O.2       1 UNK        -0.5079 
     67 H67       -81.7644   32.4037  -75.4112 H         1 UNK         0.0900 
     68 H68       -82.5429   31.0437  -76.2224 H         1 UNK         0.0900 
     69 H69       -80.8885   31.4915  -76.6436 H         1 UNK         0.0900 
     70 H70       -82.5839   29.1766  -74.9911 H         1 UNK         0.2959 
     71 H71       -80.3101   28.4148  -73.2784 H         1 UNK         0.1079 
     72 H72       -81.9465   27.5610  -71.5387 H         1 UNK         0.0837 
     73 H73       -83.2569   28.3300  -72.3912 H         1 UNK         0.0837 
     74 H74       -80.7463   30.2095  -69.1710 H         1 UNK         0.0685 
     75 H75       -81.3779   28.5930  -69.3392 H         1 UNK         0.0685 
     76 H76       -79.6773   26.9619  -69.4955 H         1 UNK         0.1434 
     77 H77       -75.8524   27.8711  -71.2221 H         1 UNK         0.1329 
     78 H78       -78.9500   30.8236  -71.2080 H         1 UNK         0.1335 
     79 H79       -76.6389   31.4444  -71.7244 H         1 UNK         0.0680 
     80 H80       -75.3446   30.2742  -71.5977 H         1 UNK         0.0680 
     81 H81       -75.7251   32.2247  -74.8890 H         1 UNK         0.1032 
     82 H82       -74.8169   32.0377  -73.4156 H         1 UNK         0.1032 
     83 H83       -74.3792   30.4258  -75.9853 H         1 UNK         0.0461 
     84 H84       -73.9603   32.1504  -77.4294 H         1 UNK         0.3453 
     85 H85       -72.7176   33.3406  -77.1438 H         1 UNK         0.3453 
     86 H86       -73.5973   29.7116  -73.4215 H         1 UNK         0.2984 
     87 H87       -70.4771   28.4671  -73.7225 H         1 UNK         0.0554 
     88 H88       -71.6150   27.5494  -71.7189 H         1 UNK         0.0847 
     89 H89       -73.1910   27.9881  -72.3565 H         1 UNK         0.0847 
     90 H90       -72.0249   29.2405  -71.9184 H         1 UNK         0.0847 
     91 H91       -72.6874   26.5740  -74.4269 H         1 UNK         0.3141 
     92 H92       -70.3431   24.2693  -75.8670 H         1 UNK         0.0743 
     93 H93       -72.4358   24.1035  -73.6333 H         1 UNK         0.0784 
     94 H94       -71.8080   22.7502  -74.5713 H         1 UNK         0.0784 
     95 H95       -70.7472   23.6354  -73.4863 H         1 UNK         0.0784 
     96 H96       -73.1936   24.3978  -75.9872 H         1 UNK         0.3213 
     97 H97       -73.3512   26.0651  -79.1689 H         1 UNK         0.0855 
     98 H98       -73.9458   23.2035  -78.2426 H         1 UNK         0.0814 
     99 H99       -72.9384   23.6547  -79.6095 H         1 UNK         0.0814 
    100 H100      -74.6591   24.0074  -79.6381 H         1 UNK         0.0814 
    101 H101      -75.3418   25.0722  -77.3214 H         1 UNK         0.3105 
    102 H102      -75.7514   28.1447  -75.5915 H         1 UNK         0.0547 
    103 H103      -77.6698   26.8346  -77.5903 H         1 UNK         0.0837 
    104 H104      -78.1228   27.9287  -76.2834 H         1 UNK         0.0837 
    105 H105      -77.1547   28.5173  -77.6263 H         1 UNK         0.0837 
    106 H106      -77.2142   25.7150  -75.4122 H         1 UNK         0.3020 
    107 H107      -74.9607   23.9950  -73.2320 H         1 UNK         0.1245 
    108 H108      -77.5623   25.4895  -72.6839 H         1 UNK         0.0781 
    109 H109      -77.4099   23.8171  -72.2077 H         1 UNK         0.0781 
    110 H110      -78.0897   25.1567  -69.8999 H         1 UNK         0.0836 
    111 H111      -76.8932   25.9185  -68.8815 H         1 UNK         0.0836 
    112 H112      -77.4343   23.3234  -74.5419 H         1 UNK         0.3022 
    113 H113      -75.9004   21.7037  -77.3087 H         1 UNK         0.0747 
    114 H114      -77.1170   19.7371  -76.4075 H         1 UNK         0.0793 
    115 H115      -75.6676   20.0366  -75.4639 H         1 UNK         0.0793 
    116 H116      -77.2371   20.5004  -74.8216 H         1 UNK         0.0793 
    117 H117      -78.6144   21.8801  -76.3826 H         1 UNK         0.3047 
    118 H118      -79.4045   24.9055  -78.1237 H         1 UNK         0.0822 
    119 H119      -81.1259   23.4211  -79.0826 H         1 UNK         0.0807 
    120 H120      -80.2648   21.9892  -78.5176 H         1 UNK         0.0807 
    121 H121      -79.5595   23.0139  -79.7600 H         1 UNK         0.0807 
    122 H122      -81.1445   23.3998  -76.5815 H         1 UNK         0.2946 
    123 H123      -81.9888   24.3819  -74.7153 H         1 UNK         0.1144 
    124 H124      -81.4184   23.5063  -72.4539 H         1 UNK         0.0793 
    125 H125      -79.6994   23.7057  -72.7789 H         1 UNK         0.0793 
    126 H126      -80.6399   22.5316  -73.6888 H         1 UNK         0.0793 
    127 H127      -80.4318   26.0337  -72.8514 H         1 UNK         0.2896 
@<TRIPOS>BOND
     1    1    2 1    
     2    1   67 1    
     3    1   68 1    
     4    1   69 1    
     5    2    3 2    
     6    2    4 am   BACKBONE|DICT|INTERRES
     7    4    5 1    
     8    4   70 1    
     9    5    6 1    
    10    5   65 1    
    11    5   71 1    
    12    6    7 1    
    13    6   72 1    
    14    6   73 1    
    15    7    8 1    
    16    8    9 1    
    17    8   74 1    
    18    8   75 1    
    19    9   10 ar   
    20    9   14 ar   
    21   10   11 ar   
    22   10   76 1    
    23   11   12 ar   
    24   11   48 1    
    25   12   13 ar   
    26   12   77 1    
    27   13   14 ar   
    28   13   15 1    
    29   14   78 1    
    30   15   16 1    
    31   15   79 1    
    32   15   80 1    
    33   16   17 1    
    34   17   18 1    
    35   17   81 1    
    36   17   82 1    
    37   18   19 1    
    38   18   22 1    
    39   18   83 1    
    40   19   20 am   BACKBONE|DICT|INTERRES
    41   19   21 2    
    42   20   84 1    
    43   20   85 1    
    44   22   23 am   BACKBONE|DICT|INTERRES
    45   22   86 1    
    46   23   24 2    
    47   23   25 1    
    48   25   26 1    
    49   25   27 1    
    50   25   87 1    
    51   26   88 1    
    52   26   89 1    
    53   26   90 1    
    54   27   28 am   BACKBONE|DICT|INTERRES
    55   27   91 1    
    56   28   29 2    
    57   28   30 1    
    58   30   31 1    
    59   30   32 1    
    60   30   92 1    
    61   31   93 1    
    62   31   94 1    
    63   31   95 1    
    64   32   33 am   BACKBONE|DICT|INTERRES
    65   32   96 1    
    66   33   34 2    
    67   33   35 1    
    68   35   36 1    
    69   35   37 1    
    70   35   97 1    
    71   36   98 1    
    72   36   99 1    
    73   36  100 1    
    74   37   38 am   BACKBONE|DICT|INTERRES
    75   37  101 1    
    76   38   39 2    
    77   38   40 1    
    78   40   41 1    
    79   40   42 1    
    80   40  102 1    
    81   41  103 1    
    82   41  104 1    
    83   41  105 1    
    84   42   43 am   BACKBONE|DICT|INTERRES
    85   42  106 1    
    86   43   44 2    
    87   43   45 1    
    88   45   46 1    
    89   45   49 1    
    90   45  107 1    
    91   46   47 1    
    92   46  108 1    
    93   46  109 1    
    94   47   48 1    
    95   48  110 1    
    96   48  111 1    
    97   49   50 am   BACKBONE|DICT|INTERRES
    98   49  112 1    
    99   50   51 2    
   100   50   52 1    
   101   52   53 1    
   102   52   54 1    
   103   52  113 1    
   104   53  114 1    
   105   53  115 1    
   106   53  116 1    
   107   54   55 am   BACKBONE|DICT|INTERRES
   108   54  117 1    
   109   55   56 2    
   110   55   57 1    
   111   57   58 1    
   112   57   59 1    
   113   57  118 1    
   114   58  119 1    
   115   58  120 1    
   116   58  121 1    
   117   59   60 am   BACKBONE|DICT|INTERRES
   118   59  122 1    
   119   60   61 2    
   120   60   62 1    
   121   62   63 1    
   122   62   64 1    
   123   62  123 1    
   124   63  124 1    
   125   63  125 1    
   126   63  126 1    
   127   64   65 am   BACKBONE|DICT|INTERRES
   128   64  127 1    
   129   65   66 2    
@<TRIPOS>SUBSTRUCTURE
     1 UNK         1 GROUP             0       ****    0 ROOT    
