@<TRIPOS>MOLECULE
3R135
127   129    1
SMALL
USER_CHARGES


@<TRIPOS>ATOM
      1 CA        -84.9493   29.4578  -76.7381 C.3       0 UNK        -0.1998 
      2 C         -83.4630   29.1370  -76.7867 C.2       0 UNK         0.4909 
      3 O         -82.8333   29.3144  -77.8297 O.2       0 UNK        -0.5240 
      4 N         -82.8992   28.6713  -75.6639 N.am      1 UNK        -0.4739 
      5 CA        -81.4862   28.2947  -75.5203 C.3       1 UNK         0.0864 
      6 C6        -81.1087   28.0748  -74.0326 C.3       11 UNK        -0.0881 
      7 S7        -81.0682   29.6540  -73.1276 S.3       11 UNK        -0.2682 
      8 C8        -80.7141   29.0996  -71.4290 C.3       11 UNK         0.0289 
      9 C9        -79.2328   28.8425  -71.1674 C.ar      11 UNK        -0.0687 
     10 C10       -78.8052   27.5953  -70.7001 C.ar      11 UNK        -0.0823 
     11 C11       -77.4679   27.3888  -70.3439 C.ar      11 UNK        -0.0830 
     12 C12       -76.5503   28.4333  -70.4767 C.ar      11 UNK        -0.1021 
     13 C13       -76.9571   29.6788  -70.9640 C.ar      11 UNK        -0.0753 
     14 C14       -78.2998   29.8767  -71.3057 C.ar      11 UNK        -0.0933 
     15 C15       -75.9618   30.8276  -71.0660 C.3       11 UNK         0.0166 
     16 S16       -74.8824   30.6810  -72.5248 S.3       11 UNK        -0.2615 
     17 C17       -73.6271   29.4874  -71.9408 C.3       11 UNK        -0.0865 
     18 CA        -72.2696   29.6255  -72.6816 C.3       10 UNK         0.0862 
     19 C         -71.1749   28.7005  -72.0715 C.2       10 UNK         0.5551 
     20 N         -70.4061   27.9564  -72.8597 N.am      10 UNK        -0.7319 
     21 O         -71.0056   28.6692  -70.8550 O.2       10 UNK        -0.5018 
     22 N         -72.4258   29.4468  -74.1324 N.am      10 UNK        -0.4509 
     23 C         -71.8286   30.1949  -75.0663 C.2       10 UNK         0.4899 
     24 O         -71.1056   31.1601  -74.8114 O.2       10 UNK        -0.4839 
     25 CA        -72.0886   29.8005  -76.5328 C.3       9 UNK         0.0222 
     26 CB        -71.0666   30.4176  -77.5118 C.3       9 UNK        -0.1966 
     27 N         -72.1999   28.3521  -76.7455 N.am      9 UNK        -0.4218 
     28 C         -71.2639   27.4166  -76.5177 C.2       9 UNK         0.5020 
     29 O         -70.1684   27.6702  -76.0133 O.2       9 UNK        -0.5274 
     30 CA        -71.5883   25.9544  -76.8993 C.3       8 UNK         0.0270 
     31 CB        -71.0717   24.9675  -75.8362 C.3       8 UNK        -0.1976 
     32 N         -73.0163   25.7086  -77.1166 N.am      8 UNK        -0.4313 
     33 C         -73.7008   25.9684  -78.2389 C.2       8 UNK         0.5041 
     34 O         -73.1804   26.3675  -79.2805 O.2       8 UNK        -0.5577 
     35 CA        -75.2344   25.8316  -78.1610 C.3       7 UNK         0.0284 
     36 CB        -75.6748   24.4012  -78.5055 C.3       7 UNK        -0.1958 
     37 N         -75.7710   26.2212  -76.8505 N.am      7 UNK        -0.4454 
     38 C         -75.6666   27.4543  -76.3311 C.2       7 UNK         0.5089 
     39 O         -75.1822   28.4092  -76.9382 O.2       7 UNK        -0.5125 
     40 CA        -76.1086   27.6471  -74.8731 C.3       6 UNK         0.0408 
     41 CB        -77.5979   27.9790  -74.7876 C.3       6 UNK        -0.1791 
     42 N         -75.8210   26.4807  -74.0395 N.am      6 UNK        -0.4762 
     43 C         -74.5907   26.1216  -73.6562 C.2       6 UNK         0.5007 
     44 O         -73.5748   26.7457  -73.9624 O.2       6 UNK        -0.5032 
     45 CA        -74.4716   24.8263  -72.8312 C.3       5 UNK         0.0783 
     46 C46       -74.8923   25.0348  -71.3496 C.3       11 UNK        -0.0857 
     47 S47       -76.6869   24.8266  -71.0478 S.3       11 UNK        -0.2512 
     48 C48       -77.0322   26.0555  -69.7562 C.3       11 UNK         0.0225 
     49 N         -75.1832   23.7068  -73.4551 N.am      5 UNK        -0.4615 
     50 C         -74.9507   23.2066  -74.6731 C.2       4 UNK         0.5053 
     51 O         -74.0342   23.5796  -75.4022 O.2       4 UNK        -0.5105 
     52 CA        -75.9299   22.1325  -75.1777 C.3       4 UNK         0.0263 
     53 CB        -75.4364   20.7324  -74.7804 C.3       4 UNK        -0.1981 
     54 N         -77.3140   22.3113  -74.7200 N.am      4 UNK        -0.4224 
     55 C         -78.0775   23.3890  -74.9529 C.2       3 UNK         0.4895 
     56 O         -77.6765   24.4086  -75.5200 O.2       3 UNK        -0.5091 
     57 CA        -79.5159   23.3244  -74.4084 C.3       3 UNK         0.0250 
     58 CB        -79.5661   23.8381  -72.9610 C.3       3 UNK        -0.1996 
     59 N         -80.4603   24.1032  -75.2095 N.am      3 UNK        -0.4254 
     60 C         -80.8197   23.8385  -76.4734 C.2       2 UNK         0.5004 
     61 O         -80.4187   22.8616  -77.1080 O.2       2 UNK        -0.5226 
     62 CA        -81.8241   24.8035  -77.1372 C.3       2 UNK         0.0269 
     63 CB        -83.1921   24.1229  -77.3130 C.3       2 UNK        -0.1926 
     64 N         -82.0147   26.0628  -76.4062 N.am      2 UNK        -0.4687 
     65 C         -81.1205   27.0616  -76.3712 C.2       1 UNK         0.5165 
     66 O         -80.0511   27.0371  -76.9793 O.2       1 UNK        -0.5079 
     67 H67       -85.1142   30.5080  -76.9772 H         1 UNK         0.0900 
     68 H68       -85.4873   28.8532  -77.4678 H         1 UNK         0.0900 
     69 H69       -85.3772   29.2630  -75.7549 H         1 UNK         0.0900 
     70 H70       -83.4629   28.5783  -74.8308 H         1 UNK         0.2959 
     71 H71       -80.8835   29.1194  -75.9089 H         1 UNK         0.1079 
     72 H72       -80.1344   27.6015  -73.9246 H         1 UNK         0.0837 
     73 H73       -81.8198   27.4024  -73.5491 H         1 UNK         0.0837 
     74 H74       -81.3134   28.2158  -71.2052 H         1 UNK         0.0685 
     75 H75       -81.0518   29.8745  -70.7396 H         1 UNK         0.0685 
     76 H76       -79.5192   26.7925  -70.5758 H         1 UNK         0.1434 
     77 H77       -75.5226   28.2822  -70.1796 H         1 UNK         0.1329 
     78 H78       -78.6283   30.8454  -71.6567 H         1 UNK         0.1335 
     79 H79       -75.3613   30.8855  -70.1571 H         1 UNK         0.0680 
     80 H80       -76.4947   31.7774  -71.1313 H         1 UNK         0.0680 
     81 H81       -74.0261   28.4806  -72.0528 H         1 UNK         0.1032 
     82 H82       -73.4807   29.6383  -70.8699 H         1 UNK         0.1032 
     83 H83       -71.9160   30.6399  -72.4894 H         1 UNK         0.0461 
     84 H84       -69.6989   27.3706  -72.4462 H         1 UNK         0.3453 
     85 H85       -70.5120   27.9854  -73.8655 H         1 UNK         0.3453 
     86 H86       -72.9481   28.6218  -74.4082 H         1 UNK         0.2984 
     87 H87       -73.0667   30.2143  -76.7812 H         1 UNK         0.0554 
     88 H88       -71.0806   31.5069  -77.4587 H         1 UNK         0.0847 
     89 H89       -71.2891   30.1433  -78.5430 H         1 UNK         0.0847 
     90 H90       -70.0487   30.0950  -77.2906 H         1 UNK         0.0847 
     91 H91       -73.0990   28.0479  -77.1018 H         1 UNK         0.3141 
     92 H92       -71.0570   25.7488  -77.8306 H         1 UNK         0.0743 
     93 H93       -69.9917   25.0511  -75.7089 H         1 UNK         0.0784 
     94 H94       -71.5306   25.1487  -74.8638 H         1 UNK         0.0784 
     95 H95       -71.2825   23.9355  -76.1176 H         1 UNK         0.0784 
     96 H96       -73.5215   25.3111  -76.3301 H         1 UNK         0.3213 
     97 H97       -75.6663   26.5075  -78.9022 H         1 UNK         0.0855 
     98 H98       -75.1877   23.6662  -77.8666 H         1 UNK         0.0814 
     99 H99       -75.4134   24.1549  -79.5354 H         1 UNK         0.0814 
    100 H100      -76.7534   24.2775  -78.4039 H         1 UNK         0.0814 
    101 H101      -76.2517   25.5078  -76.3076 H         1 UNK         0.3105 
    102 H102      -75.5543   28.4977  -74.4725 H         1 UNK         0.0547 
    103 H103      -78.2034   27.1298  -75.1026 H         1 UNK         0.0837 
    104 H104      -77.8541   28.8252  -75.4264 H         1 UNK         0.0837 
    105 H105      -77.8774   28.2436  -73.7682 H         1 UNK         0.0837 
    106 H106      -76.6006   25.8895  -73.7867 H         1 UNK         0.3020 
    107 H107      -73.4102   24.5674  -72.8383 H         1 UNK         0.1245 
    108 H108      -74.5579   26.0054  -70.9779 H         1 UNK         0.0781 
    109 H109      -74.3811   24.2971  -70.7294 H         1 UNK         0.0781 
    110 H110      -76.1611   26.1771  -69.1106 H         1 UNK         0.0836 
    111 H111      -77.8254   25.6687  -69.1147 H         1 UNK         0.0836 
    112 H112      -75.9677   23.3488  -72.9296 H         1 UNK         0.3022 
    113 H113      -75.9436   22.1871  -76.2670 H         1 UNK         0.0747 
    114 H114      -76.0581   19.9519  -75.2193 H         1 UNK         0.0793 
    115 H115      -74.4165   20.5649  -75.1300 H         1 UNK         0.0793 
    116 H116      -75.4364   20.5950  -73.6983 H         1 UNK         0.0793 
    117 H117      -77.7235   21.5303  -74.2275 H         1 UNK         0.3047 
    118 H118      -79.8486   22.2843  -74.4247 H         1 UNK         0.0822 
    119 H119      -80.5758   23.7852  -72.5534 H         1 UNK         0.0807 
    120 H120      -79.2282   24.8731  -72.8872 H         1 UNK         0.0807 
    121 H121      -78.9290   23.2376  -72.3109 H         1 UNK         0.0807 
    122 H122      -80.8367   24.9345  -74.7825 H         1 UNK         0.2946 
    123 H123      -81.4286   25.0383  -78.1283 H         1 UNK         0.1144 
    124 H124      -83.8897   24.7662  -77.8497 H         1 UNK         0.0793 
    125 H125      -83.6413   23.8647  -76.3532 H         1 UNK         0.0793 
    126 H126      -83.0993   23.2001  -77.8877 H         1 UNK         0.0793 
    127 H127      -82.8824   26.1733  -75.9010 H         1 UNK         0.2896 
@<TRIPOS>BOND
     1    1    2 1    
     2    1   67 1    
     3    1   68 1    
     4    1   69 1    
     5    2    3 2    
     6    2    4 am   BACKBONE|DICT|INTERRES
     7    4    5 1    
     8    4   70 1    
     9    5    6 1    
    10    5   65 1    
    11    5   71 1    
    12    6    7 1    
    13    6   72 1    
    14    6   73 1    
    15    7    8 1    
    16    8    9 1    
    17    8   74 1    
    18    8   75 1    
    19    9   10 ar   
    20    9   14 ar   
    21   10   11 ar   
    22   10   76 1    
    23   11   12 ar   
    24   11   48 1    
    25   12   13 ar   
    26   12   77 1    
    27   13   14 ar   
    28   13   15 1    
    29   14   78 1    
    30   15   16 1    
    31   15   79 1    
    32   15   80 1    
    33   16   17 1    
    34   17   18 1    
    35   17   81 1    
    36   17   82 1    
    37   18   19 1    
    38   18   22 1    
    39   18   83 1    
    40   19   20 am   BACKBONE|DICT|INTERRES
    41   19   21 2    
    42   20   84 1    
    43   20   85 1    
    44   22   23 am   BACKBONE|DICT|INTERRES
    45   22   86 1    
    46   23   24 2    
    47   23   25 1    
    48   25   26 1    
    49   25   27 1    
    50   25   87 1    
    51   26   88 1    
    52   26   89 1    
    53   26   90 1    
    54   27   28 am   BACKBONE|DICT|INTERRES
    55   27   91 1    
    56   28   29 2    
    57   28   30 1    
    58   30   31 1    
    59   30   32 1    
    60   30   92 1    
    61   31   93 1    
    62   31   94 1    
    63   31   95 1    
    64   32   33 am   BACKBONE|DICT|INTERRES
    65   32   96 1    
    66   33   34 2    
    67   33   35 1    
    68   35   36 1    
    69   35   37 1    
    70   35   97 1    
    71   36   98 1    
    72   36   99 1    
    73   36  100 1    
    74   37   38 am   BACKBONE|DICT|INTERRES
    75   37  101 1    
    76   38   39 2    
    77   38   40 1    
    78   40   41 1    
    79   40   42 1    
    80   40  102 1    
    81   41  103 1    
    82   41  104 1    
    83   41  105 1    
    84   42   43 am   BACKBONE|DICT|INTERRES
    85   42  106 1    
    86   43   44 2    
    87   43   45 1    
    88   45   46 1    
    89   45   49 1    
    90   45  107 1    
    91   46   47 1    
    92   46  108 1    
    93   46  109 1    
    94   47   48 1    
    95   48  110 1    
    96   48  111 1    
    97   49   50 am   BACKBONE|DICT|INTERRES
    98   49  112 1    
    99   50   51 2    
   100   50   52 1    
   101   52   53 1    
   102   52   54 1    
   103   52  113 1    
   104   53  114 1    
   105   53  115 1    
   106   53  116 1    
   107   54   55 am   BACKBONE|DICT|INTERRES
   108   54  117 1    
   109   55   56 2    
   110   55   57 1    
   111   57   58 1    
   112   57   59 1    
   113   57  118 1    
   114   58  119 1    
   115   58  120 1    
   116   58  121 1    
   117   59   60 am   BACKBONE|DICT|INTERRES
   118   59  122 1    
   119   60   61 2    
   120   60   62 1    
   121   62   63 1    
   122   62   64 1    
   123   62  123 1    
   124   63  124 1    
   125   63  125 1    
   126   63  126 1    
   127   64   65 am   BACKBONE|DICT|INTERRES
   128   64  127 1    
   129   65   66 2    
@<TRIPOS>SUBSTRUCTURE
     1 UNK         1 GROUP             0       ****    0 ROOT    
