@<TRIPOS>MOLECULE
3R135
127   129    1
SMALL
USER_CHARGES


@<TRIPOS>ATOM
      1 CA        -85.6800   28.1236  -74.9605 C.3       0 UNK        -0.1998 
      2 C         -84.3793   28.5941  -75.5935 C.2       0 UNK         0.4909 
      3 O         -84.3938   29.1149  -76.7091 O.2       0 UNK        -0.5240 
      4 N         -83.2534   28.4142  -74.8905 N.am      1 UNK        -0.4739 
      5 CA        -81.9075   28.7833  -75.3512 C.3       1 UNK         0.0864 
      6 C6        -80.9217   28.9278  -74.1647 C.3       11 UNK        -0.0881 
      7 S7        -80.7283   27.3948  -73.1824 S.3       11 UNK        -0.2682 
      8 C8        -80.4732   28.0468  -71.5032 C.3       11 UNK         0.0289 
      9 C9        -79.0013   28.2818  -71.1872 C.ar      11 UNK        -0.0687 
     10 C10       -78.2907   27.3383  -70.4364 C.ar      11 UNK        -0.0823 
     11 C11       -76.9645   27.5796  -70.0646 C.ar      11 UNK        -0.0830 
     12 C12       -76.3531   28.7733  -70.4480 C.ar      11 UNK        -0.1021 
     13 C13       -77.0309   29.7045  -71.2387 C.ar      11 UNK        -0.0753 
     14 C14       -78.3604   29.4561  -71.6002 C.ar      11 UNK        -0.0933 
     15 C15       -76.3309   30.9877  -71.6707 C.3       11 UNK         0.0166 
     16 S16       -75.1949   30.7212  -73.0734 S.3       11 UNK        -0.2615 
     17 C17       -73.8183   29.8166  -72.2784 C.3       11 UNK        -0.0865 
     18 CA        -72.4449   30.0332  -72.9648 C.3       10 UNK         0.0862 
     19 C         -71.2915   29.3613  -72.1588 C.2       10 UNK         0.5551 
     20 N         -70.4435   28.5291  -72.7538 N.am      10 UNK        -0.7319 
     21 O         -71.1530   29.6145  -70.9646 O.2       10 UNK        -0.5018 
     22 N         -72.4745   29.6590  -74.3865 N.am      10 UNK        -0.4509 
     23 C         -71.6846   30.1960  -75.3237 C.2       10 UNK         0.4899 
     24 O         -70.8895   31.1124  -75.1066 O.2       10 UNK        -0.4839 
     25 CA        -71.8038   29.5996  -76.7372 C.3       9 UNK         0.0222 
     26 CB        -70.6634   30.0423  -77.6790 C.3       9 UNK        -0.1966 
     27 N         -71.9400   28.1382  -76.7365 N.am      9 UNK        -0.4218 
     28 C         -71.0643   27.2287  -76.2786 C.2       9 UNK         0.5020 
     29 O         -70.0142   27.5334  -75.7104 O.2       9 UNK        -0.5274 
     30 CA        -71.4006   25.7309  -76.4694 C.3       8 UNK         0.0270 
     31 CB        -71.0777   24.9142  -75.2048 C.3       8 UNK        -0.1976 
     32 N         -72.7925   25.4781  -76.8521 N.am      8 UNK        -0.4313 
     33 C         -73.3176   25.6483  -78.0735 C.2       8 UNK         0.5041 
     34 O         -72.6539   25.9375  -79.0688 O.2       8 UNK        -0.5577 
     35 CA        -74.8514   25.5559  -78.1877 C.3       7 UNK         0.0284 
     36 CB        -75.2808   24.1310  -78.5664 C.3       7 UNK        -0.1958 
     37 N         -75.5433   25.9801  -76.9631 N.am      7 UNK        -0.4454 
     38 C         -75.4753   27.2131  -76.4380 C.2       7 UNK         0.5089 
     39 O         -74.8721   28.1455  -76.9684 O.2       7 UNK        -0.5125 
     40 CA        -76.1331   27.4343  -75.0695 C.3       6 UNK         0.0408 
     41 CB        -77.6081   27.8142  -75.2177 C.3       6 UNK        -0.1791 
     42 N         -76.0167   26.2672  -74.1974 N.am      6 UNK        -0.4762 
     43 C         -74.9022   25.9283  -73.5351 C.2       6 UNK         0.5007 
     44 O         -73.8529   26.5696  -73.5986 O.2       6 UNK        -0.5032 
     45 CA        -74.9589   24.6202  -72.7126 C.3       5 UNK         0.0783 
     46 C46       -75.6909   24.8041  -71.3604 C.3       11 UNK        -0.0857 
     47 S47       -74.7955   25.8409  -70.1605 S.3       11 UNK        -0.2512 
     48 C48       -76.1864   26.5693  -69.2318 C.3       11 UNK         0.0225 
     49 N         -75.5908   23.5326  -73.4622 N.am      5 UNK        -0.4615 
     50 C         -75.1825   23.0326  -74.6349 C.2       4 UNK         0.5053 
     51 O         -74.1484   23.3736  -75.2064 O.2       4 UNK        -0.5105 
     52 CA        -76.1298   22.0175  -75.3038 C.3       4 UNK         0.0263 
     53 CB        -75.7744   20.5867  -74.8706 C.3       4 UNK        -0.1981 
     54 N         -77.5522   22.2748  -75.0334 N.am      4 UNK        -0.4224 
     55 C         -78.1965   23.4110  -75.3390 C.2       3 UNK         0.4895 
     56 O         -77.6596   24.3711  -75.8955 O.2       3 UNK        -0.5091 
     57 CA        -79.6525   23.5208  -74.8572 C.3       3 UNK         0.0250 
     58 CB        -79.6821   23.8829  -73.3620 C.3       3 UNK        -0.1996 
     59 N         -80.4119   24.5292  -75.6019 N.am      3 UNK        -0.4254 
     60 C         -80.7707   24.4220  -76.8899 C.2       2 UNK         0.5004 
     61 O         -80.5290   23.4295  -77.5794 O.2       2 UNK        -0.5226 
     62 CA        -81.5542   25.5919  -77.5159 C.3       2 UNK         0.0269 
     63 CB        -82.8470   25.0925  -78.1868 C.3       2 UNK        -0.1926 
     64 N         -81.9132   26.6222  -76.5363 N.am      2 UNK        -0.4687 
     65 C         -81.3565   27.8382  -76.4449 C.2       1 UNK         0.5165 
     66 O         -80.4474   28.2291  -77.1778 O.2       1 UNK        -0.5079 
     67 H67       -86.1536   27.3718  -75.5913 H         1 UNK         0.0900 
     68 H68       -85.5194   27.6872  -73.9748 H         1 UNK         0.0900 
     69 H69       -86.3687   28.9610  -74.8522 H         1 UNK         0.0900 
     70 H70       -83.2937   27.9844  -73.9764 H         1 UNK         0.2959 
     71 H71       -81.9847   29.7656  -75.8234 H         1 UNK         0.1079 
     72 H72       -79.9458   29.2618  -74.5167 H         1 UNK         0.0837 
     73 H73       -81.2770   29.7271  -73.5132 H         1 UNK         0.0837 
     74 H74       -81.0403   28.9670  -71.3581 H         1 UNK         0.0685 
     75 H75       -80.8922   27.3299  -70.7956 H         1 UNK         0.0685 
     76 H76       -78.7784   26.4248  -70.1245 H         1 UNK         0.1434 
     77 H77       -75.3372   28.9635  -70.1354 H         1 UNK         0.1329 
     78 H78       -78.9025   30.1825  -72.1894 H         1 UNK         0.1335 
     79 H79       -75.7854   31.4180  -70.8296 H         1 UNK         0.0680 
     80 H80       -77.0699   31.7350  -71.9636 H         1 UNK         0.0680 
     81 H81       -74.0687   28.7558  -72.2472 H         1 UNK         0.1032 
     82 H82       -73.7535   30.1471  -71.2407 H         1 UNK         0.1032 
     83 H83       -72.2412   31.1045  -72.9116 H         1 UNK         0.0461 
     84 H84       -70.5149   28.3279  -73.7428 H         1 UNK         0.3453 
     85 H85       -69.7037   28.1131  -72.2114 H         1 UNK         0.3453 
     86 H86       -73.0807   28.8885  -74.6310 H         1 UNK         0.2984 
     87 H87       -72.7361   29.9884  -77.1490 H         1 UNK         0.0554 
     88 H88       -70.6421   31.1277  -77.7847 H         1 UNK         0.0847 
     89 H89       -70.7884   29.6238  -78.6776 H         1 UNK         0.0847 
     90 H90       -69.6864   29.7337  -77.3055 H         1 UNK         0.0847 
     91 H91       -72.8163   27.8009  -77.1193 H         1 UNK         0.3141 
     92 H92       -70.7572   25.3675  -77.2731 H         1 UNK         0.0743 
     93 H93       -70.0218   24.9918  -74.9431 H         1 UNK         0.0784 
     94 H94       -71.6524   25.2588  -74.3450 H         1 UNK         0.0784 
     95 H95       -71.2954   23.8557  -75.3495 H         1 UNK         0.0784 
     96 H96       -73.4106   25.1658  -76.1106 H         1 UNK         0.3213 
     97 H97       -75.1660   26.2307  -78.9867 H         1 UNK         0.0855 
     98 H98       -74.8739   23.3941  -77.8753 H         1 UNK         0.0814 
     99 H99       -74.9172   23.8712  -79.5613 H         1 UNK         0.0814 
    100 H100      -76.3661   24.0258  -78.5778 H         1 UNK         0.0814 
    101 H101      -76.1335   25.2939  -76.4975 H         1 UNK         0.3105 
    102 H102      -75.6221   28.2708  -74.5913 H         1 UNK         0.0547 
    103 H103      -78.0343   28.0373  -74.2413 H         1 UNK         0.0837 
    104 H104      -77.7248   28.7036  -75.8382 H         1 UNK         0.0837 
    105 H105      -78.1970   27.0168  -75.6720 H         1 UNK         0.0837 
    106 H106      -76.8107   25.6429  -74.1740 H         1 UNK         0.3020 
    107 H107      -73.9278   24.3184  -72.5146 H         1 UNK         0.1245 
    108 H108      -75.8338   23.8337  -70.8818 H         1 UNK         0.0781 
    109 H109      -76.6934   25.2025  -71.5249 H         1 UNK         0.0781 
    110 H110      -75.7943   27.0674  -68.3439 H         1 UNK         0.0836 
    111 H111      -76.8379   25.7717  -68.8712 H         1 UNK         0.0836 
    112 H112      -76.4481   23.1681  -73.0759 H         1 UNK         0.3022 
    113 H113      -75.9869   22.0889  -76.3823 H         1 UNK         0.0747 
    114 H114      -76.3739   19.8492  -75.4046 H         1 UNK         0.0793 
    115 H115      -74.7275   20.3644  -75.0832 H         1 UNK         0.0793 
    116 H116      -75.9287   20.4361  -73.8014 H         1 UNK         0.0793 
    117 H117      -78.0630   21.5367  -74.5696 H         1 UNK         0.3047 
    118 H118      -80.1412   22.5547  -75.0000 H         1 UNK         0.0822 
    119 H119      -79.2129   23.1063  -72.7569 H         1 UNK         0.0807 
    120 H120      -80.7043   23.9953  -72.9999 H         1 UNK         0.0807 
    121 H121      -79.1531   24.8156  -73.1610 H         1 UNK         0.0807 
    122 H122      -80.6185   25.3917  -75.1191 H         1 UNK         0.2946 
    123 H123      -80.9115   26.0158  -78.2909 H         1 UNK         0.1144 
    124 H124      -83.3929   25.9133  -78.6527 H         1 UNK         0.0793 
    125 H125      -83.5134   24.6105  -77.4705 H         1 UNK         0.0793 
    126 H126      -82.6296   24.3662  -78.9711 H         1 UNK         0.0793 
    127 H127      -82.6517   26.3925  -75.8864 H         1 UNK         0.2896 
@<TRIPOS>BOND
     1    1    2 1    
     2    1   67 1    
     3    1   68 1    
     4    1   69 1    
     5    2    3 2    
     6    2    4 am   BACKBONE|DICT|INTERRES
     7    4    5 1    
     8    4   70 1    
     9    5    6 1    
    10    5   65 1    
    11    5   71 1    
    12    6    7 1    
    13    6   72 1    
    14    6   73 1    
    15    7    8 1    
    16    8    9 1    
    17    8   74 1    
    18    8   75 1    
    19    9   10 ar   
    20    9   14 ar   
    21   10   11 ar   
    22   10   76 1    
    23   11   12 ar   
    24   11   48 1    
    25   12   13 ar   
    26   12   77 1    
    27   13   14 ar   
    28   13   15 1    
    29   14   78 1    
    30   15   16 1    
    31   15   79 1    
    32   15   80 1    
    33   16   17 1    
    34   17   18 1    
    35   17   81 1    
    36   17   82 1    
    37   18   19 1    
    38   18   22 1    
    39   18   83 1    
    40   19   20 am   BACKBONE|DICT|INTERRES
    41   19   21 2    
    42   20   84 1    
    43   20   85 1    
    44   22   23 am   BACKBONE|DICT|INTERRES
    45   22   86 1    
    46   23   24 2    
    47   23   25 1    
    48   25   26 1    
    49   25   27 1    
    50   25   87 1    
    51   26   88 1    
    52   26   89 1    
    53   26   90 1    
    54   27   28 am   BACKBONE|DICT|INTERRES
    55   27   91 1    
    56   28   29 2    
    57   28   30 1    
    58   30   31 1    
    59   30   32 1    
    60   30   92 1    
    61   31   93 1    
    62   31   94 1    
    63   31   95 1    
    64   32   33 am   BACKBONE|DICT|INTERRES
    65   32   96 1    
    66   33   34 2    
    67   33   35 1    
    68   35   36 1    
    69   35   37 1    
    70   35   97 1    
    71   36   98 1    
    72   36   99 1    
    73   36  100 1    
    74   37   38 am   BACKBONE|DICT|INTERRES
    75   37  101 1    
    76   38   39 2    
    77   38   40 1    
    78   40   41 1    
    79   40   42 1    
    80   40  102 1    
    81   41  103 1    
    82   41  104 1    
    83   41  105 1    
    84   42   43 am   BACKBONE|DICT|INTERRES
    85   42  106 1    
    86   43   44 2    
    87   43   45 1    
    88   45   46 1    
    89   45   49 1    
    90   45  107 1    
    91   46   47 1    
    92   46  108 1    
    93   46  109 1    
    94   47   48 1    
    95   48  110 1    
    96   48  111 1    
    97   49   50 am   BACKBONE|DICT|INTERRES
    98   49  112 1    
    99   50   51 2    
   100   50   52 1    
   101   52   53 1    
   102   52   54 1    
   103   52  113 1    
   104   53  114 1    
   105   53  115 1    
   106   53  116 1    
   107   54   55 am   BACKBONE|DICT|INTERRES
   108   54  117 1    
   109   55   56 2    
   110   55   57 1    
   111   57   58 1    
   112   57   59 1    
   113   57  118 1    
   114   58  119 1    
   115   58  120 1    
   116   58  121 1    
   117   59   60 am   BACKBONE|DICT|INTERRES
   118   59  122 1    
   119   60   61 2    
   120   60   62 1    
   121   62   63 1    
   122   62   64 1    
   123   62  123 1    
   124   63  124 1    
   125   63  125 1    
   126   63  126 1    
   127   64   65 am   BACKBONE|DICT|INTERRES
   128   64  127 1    
   129   65   66 2    
@<TRIPOS>SUBSTRUCTURE
     1 UNK         1 GROUP             0       ****    0 ROOT    
