@<TRIPOS>MOLECULE
3R135
127   129    1
SMALL
USER_CHARGES


@<TRIPOS>ATOM
      1 CA        -77.6094   29.6801  -77.9534 C.3       0 UNK        -0.1998 
      2 C         -77.9560   28.9219  -76.6820 C.2       0 UNK         0.4909 
      3 O         -77.3193   27.9157  -76.3688 O.2       0 UNK        -0.5240 
      4 N         -78.9583   29.3964  -75.9361 N.am      1 UNK        -0.4739 
      5 CA        -79.4545   28.7635  -74.7123 C.3       1 UNK         0.0864 
      6 C6        -80.1671   29.7854  -73.7902 C.3       11 UNK        -0.0881 
      7 S7        -79.0352   31.0724  -73.1561 S.3       11 UNK        -0.2682 
      8 C8        -79.2275   30.8961  -71.3504 C.3       11 UNK         0.0289 
      9 C9        -78.1712   29.9885  -70.7311 C.ar      11 UNK        -0.0687 
     10 C10       -78.0907   28.6378  -71.0828 C.ar      11 UNK        -0.0823 
     11 C11       -77.1196   27.8119  -70.5109 C.ar      11 UNK        -0.0830 
     12 C12       -76.2587   28.3288  -69.5400 C.ar      11 UNK        -0.1021 
     13 C13       -76.3125   29.6819  -69.1914 C.ar      11 UNK        -0.0753 
     14 C14       -77.2747   30.5030  -69.7888 C.ar      11 UNK        -0.0933 
     15 C15       -75.3389   30.2770  -68.1766 C.3       11 UNK         0.0166 
     16 S16       -73.5820   29.8197  -68.4237 S.3       11 UNK        -0.2615 
     17 C17       -73.3442   29.7781  -70.2373 C.3       11 UNK        -0.0865 
     18 CA        -73.7707   31.0694  -71.0037 C.3       10 UNK         0.0862 
     19 C         -72.5955   32.0722  -71.2149 C.2       10 UNK         0.5551 
     20 N         -72.5023   32.7506  -72.3523 N.am      10 UNK        -0.7319 
     21 O         -71.7713   32.2656  -70.3247 O.2       10 UNK        -0.5018 
     22 N         -74.5594   30.7709  -72.2146 N.am      10 UNK        -0.4509 
     23 C         -74.1619   30.0121  -73.2448 C.2       10 UNK         0.4899 
     24 O         -73.0805   29.4202  -73.2732 O.2       10 UNK        -0.4839 
     25 CA        -75.1608   29.8958  -74.4169 C.3       9 UNK         0.0222 
     26 CB        -75.5924   31.2852  -74.9400 C.3       9 UNK        -0.1966 
     27 N         -74.6774   29.0451  -75.5162 N.am      9 UNK        -0.4218 
     28 C         -73.6107   29.2470  -76.3069 C.2       9 UNK         0.5020 
     29 O         -72.9288   30.2736  -76.3014 O.2       9 UNK        -0.5274 
     30 CA        -73.2121   28.1139  -77.2669 C.3       8 UNK         0.0270 
     31 CB        -72.0484   27.3035  -76.6712 C.3       8 UNK        -0.1976 
     32 N         -74.3111   27.1959  -77.5743 N.am      8 UNK        -0.4313 
     33 C         -75.0634   27.2569  -78.6841 C.2       8 UNK         0.5041 
     34 O         -74.9566   28.1530  -79.5239 O.2       8 UNK        -0.5577 
     35 CA        -76.0985   26.1288  -78.9094 C.3       7 UNK         0.0284 
     36 CB        -76.3878   25.8709  -80.4032 C.3       7 UNK        -0.1958 
     37 N         -75.7593   24.8802  -78.2182 N.am      7 UNK        -0.4454 
     38 C         -74.6484   24.1418  -78.3775 C.2       7 UNK         0.5089 
     39 O         -73.8130   24.3446  -79.2598 O.2       7 UNK        -0.5125 
     40 CA        -74.4072   23.0064  -77.3617 C.3       6 UNK         0.0408 
     41 CB        -72.9082   22.8199  -77.0456 C.3       6 UNK        -0.1791 
     42 N         -75.1787   23.1376  -76.1182 N.am      6 UNK        -0.4762 
     43 C         -75.1393   24.1363  -75.2170 C.2       6 UNK         0.5007 
     44 O         -74.4188   25.1273  -75.3483 O.2       6 UNK        -0.5032 
     45 CA        -76.1023   24.0396  -74.0070 C.3       5 UNK         0.0783 
     46 C46       -76.7530   25.4087  -73.6609 C.3       11 UNK        -0.0857 
     47 S47       -75.8104   26.3189  -72.3933 S.3       11 UNK        -0.2512 
     48 C48       -76.9633   26.3768  -70.9812 C.3       11 UNK         0.0225 
     49 N         -77.1330   23.0272  -74.2495 N.am      5 UNK        -0.4615 
     50 C         -77.1188   21.7601  -73.8159 C.2       4 UNK         0.5053 
     51 O         -76.2592   21.3056  -73.0621 O.2       4 UNK        -0.5105 
     52 CA        -78.2390   20.8318  -74.3297 C.3       4 UNK         0.0263 
     53 CB        -79.3046   20.6283  -73.2406 C.3       4 UNK        -0.1981 
     54 N         -78.8913   21.3227  -75.5494 N.am      4 UNK        -0.4224 
     55 C         -78.3097   21.4148  -76.7556 C.2       3 UNK         0.4895 
     56 O         -77.1809   20.9924  -77.0019 O.2       3 UNK        -0.5091 
     57 CA        -79.0869   22.1833  -77.8424 C.3       3 UNK         0.0250 
     58 CB        -79.9708   21.2257  -78.6564 C.3       3 UNK        -0.1996 
     59 N         -79.9097   23.2687  -77.2905 N.am      3 UNK        -0.4254 
     60 C         -79.4136   24.3357  -76.6487 C.2       2 UNK         0.5004 
     61 O         -78.2055   24.5650  -76.5416 O.2       2 UNK        -0.5226 
     62 CA        -80.4243   25.2284  -75.9211 C.3       2 UNK         0.0269 
     63 CB        -80.9733   24.4997  -74.6752 C.3       2 UNK        -0.1926 
     64 N         -79.7636   26.4698  -75.5245 N.am      2 UNK        -0.4687 
     65 C         -80.3695   27.5753  -75.0786 C.2       1 UNK         0.5165 
     66 O         -81.5933   27.6859  -74.9796 O.2       1 UNK        -0.5079 
     67 H67       -76.5543   29.9523  -77.9516 H         1 UNK         0.0900 
     68 H68       -78.1945   30.5937  -78.0561 H         1 UNK         0.0900 
     69 H69       -77.7967   29.0549  -78.8257 H         1 UNK         0.0900 
     70 H70       -79.4557   30.2240  -76.2319 H         1 UNK         0.2959 
     71 H71       -78.6040   28.3551  -74.1615 H         1 UNK         0.1079 
     72 H72       -80.9800   30.2818  -74.3235 H         1 UNK         0.0837 
     73 H73       -80.6372   29.2707  -72.9507 H         1 UNK         0.0837 
     74 H74       -79.1668   31.8942  -70.9139 H         1 UNK         0.0685 
     75 H75       -80.2228   30.5269  -71.1007 H         1 UNK         0.0685 
     76 H76       -78.7689   28.2308  -71.8171 H         1 UNK         0.1434 
     77 H77       -75.5103   27.6894  -69.0918 H         1 UNK         0.1329 
     78 H78       -77.3275   31.5484  -69.5167 H         1 UNK         0.1335 
     79 H79       -75.4059   31.3659  -68.1786 H         1 UNK         0.0680 
     80 H80       -75.6412   29.9597  -67.1779 H         1 UNK         0.0680 
     81 H81       -73.8906   28.9121  -70.6102 H         1 UNK         0.1032 
     82 H82       -72.2997   29.5343  -70.4406 H         1 UNK         0.1032 
     83 H83       -74.4690   31.6249  -70.3804 H         1 UNK         0.0461 
     84 H84       -73.1692   32.5998  -73.0914 H         1 UNK         0.3453 
     85 H85       -71.7462   33.4051  -72.4773 H         1 UNK         0.3453 
     86 H86       -75.4701   31.2049  -72.2556 H         1 UNK         0.2984 
     87 H87       -76.0463   29.3935  -74.0233 H         1 UNK         0.0554 
     88 H88       -76.2516   31.2019  -75.8019 H         1 UNK         0.0847 
     89 H89       -74.7371   31.8931  -75.2359 H         1 UNK         0.0847 
     90 H90       -76.1408   31.8448  -74.1822 H         1 UNK         0.0847 
     91 H91       -75.1960   28.1850  -75.6451 H         1 UNK         0.3141 
     92 H92       -72.8531   28.5786  -78.1877 H         1 UNK         0.0743 
     93 H93       -72.3236   26.8405  -75.7225 H         1 UNK         0.0784 
     94 H94       -71.7263   26.5131  -77.3496 H         1 UNK         0.0784 
     95 H95       -71.1849   27.9425  -76.4819 H         1 UNK         0.0784 
     96 H96       -74.4600   26.4320  -76.9207 H         1 UNK         0.3213 
     97 H97       -77.0298   26.4707  -78.4590 H         1 UNK         0.0855 
     98 H98       -76.7919   26.7635  -80.8820 H         1 UNK         0.0814 
     99 H99       -77.1211   25.0752  -80.5332 H         1 UNK         0.0814 
    100 H100      -75.4861   25.5911  -80.9485 H         1 UNK         0.0814 
    101 H101      -76.4003   24.6237  -77.4722 H         1 UNK         0.3105 
    102 H102      -74.7603   22.0933  -77.8422 H         1 UNK         0.0547 
    103 H103      -72.3449   22.5694  -77.9453 H         1 UNK         0.0837 
    104 H104      -72.4668   23.7262  -76.6296 H         1 UNK         0.0837 
    105 H105      -72.7500   22.0111  -76.3327 H         1 UNK         0.0837 
    106 H106      -75.8429   22.3890  -75.9616 H         1 UNK         0.3020 
    107 H107      -75.4915   23.7157  -73.1612 H         1 UNK         0.1245 
    108 H108      -77.7752   25.2675  -73.3093 H         1 UNK         0.0781 
    109 H109      -76.8508   26.0441  -74.5424 H         1 UNK         0.0781 
    110 H110      -76.5716   25.7530  -70.1763 H         1 UNK         0.0836 
    111 H111      -77.9393   25.9632  -71.2355 H         1 UNK         0.0836 
    112 H112      -77.8412   23.3067  -74.9164 H         1 UNK         0.3022 
    113 H113      -77.7848   19.8643  -74.5542 H         1 UNK         0.0747 
    114 H114      -80.0675   19.9175  -73.5588 H         1 UNK         0.0793 
    115 H115      -78.8583   20.2327  -72.3270 H         1 UNK         0.0793 
    116 H116      -79.8023   21.5636  -72.9810 H         1 UNK         0.0793 
    117 H117      -79.8313   21.6753  -75.4469 H         1 UNK         0.3047 
    118 H118      -78.3520   22.6297  -78.5165 H         1 UNK         0.0822 
    119 H119      -80.4646   21.7441  -79.4786 H         1 UNK         0.0807 
    120 H120      -80.7415   20.7608  -78.0403 H         1 UNK         0.0807 
    121 H121      -79.3752   20.4230  -79.0939 H         1 UNK         0.0807 
    122 H122      -80.9117   23.1497  -77.3443 H         1 UNK         0.2946 
    123 H123      -81.2393   25.4643  -76.6092 H         1 UNK         0.1144 
    124 H124      -81.4664   23.5648  -74.9434 H         1 UNK         0.0793 
    125 H125      -81.7145   25.1022  -74.1505 H         1 UNK         0.0793 
    126 H126      -80.1799   24.2609  -73.9658 H         1 UNK         0.0793 
    127 H127      -78.7613   26.4909  -75.6964 H         1 UNK         0.2896 
@<TRIPOS>BOND
     1    1    2 1    
     2    1   67 1    
     3    1   68 1    
     4    1   69 1    
     5    2    3 2    
     6    2    4 am   BACKBONE|DICT|INTERRES
     7    4    5 1    
     8    4   70 1    
     9    5    6 1    
    10    5   65 1    
    11    5   71 1    
    12    6    7 1    
    13    6   72 1    
    14    6   73 1    
    15    7    8 1    
    16    8    9 1    
    17    8   74 1    
    18    8   75 1    
    19    9   10 ar   
    20    9   14 ar   
    21   10   11 ar   
    22   10   76 1    
    23   11   12 ar   
    24   11   48 1    
    25   12   13 ar   
    26   12   77 1    
    27   13   14 ar   
    28   13   15 1    
    29   14   78 1    
    30   15   16 1    
    31   15   79 1    
    32   15   80 1    
    33   16   17 1    
    34   17   18 1    
    35   17   81 1    
    36   17   82 1    
    37   18   19 1    
    38   18   22 1    
    39   18   83 1    
    40   19   20 am   BACKBONE|DICT|INTERRES
    41   19   21 2    
    42   20   84 1    
    43   20   85 1    
    44   22   23 am   BACKBONE|DICT|INTERRES
    45   22   86 1    
    46   23   24 2    
    47   23   25 1    
    48   25   26 1    
    49   25   27 1    
    50   25   87 1    
    51   26   88 1    
    52   26   89 1    
    53   26   90 1    
    54   27   28 am   BACKBONE|DICT|INTERRES
    55   27   91 1    
    56   28   29 2    
    57   28   30 1    
    58   30   31 1    
    59   30   32 1    
    60   30   92 1    
    61   31   93 1    
    62   31   94 1    
    63   31   95 1    
    64   32   33 am   BACKBONE|DICT|INTERRES
    65   32   96 1    
    66   33   34 2    
    67   33   35 1    
    68   35   36 1    
    69   35   37 1    
    70   35   97 1    
    71   36   98 1    
    72   36   99 1    
    73   36  100 1    
    74   37   38 am   BACKBONE|DICT|INTERRES
    75   37  101 1    
    76   38   39 2    
    77   38   40 1    
    78   40   41 1    
    79   40   42 1    
    80   40  102 1    
    81   41  103 1    
    82   41  104 1    
    83   41  105 1    
    84   42   43 am   BACKBONE|DICT|INTERRES
    85   42  106 1    
    86   43   44 2    
    87   43   45 1    
    88   45   46 1    
    89   45   49 1    
    90   45  107 1    
    91   46   47 1    
    92   46  108 1    
    93   46  109 1    
    94   47   48 1    
    95   48  110 1    
    96   48  111 1    
    97   49   50 am   BACKBONE|DICT|INTERRES
    98   49  112 1    
    99   50   51 2    
   100   50   52 1    
   101   52   53 1    
   102   52   54 1    
   103   52  113 1    
   104   53  114 1    
   105   53  115 1    
   106   53  116 1    
   107   54   55 am   BACKBONE|DICT|INTERRES
   108   54  117 1    
   109   55   56 2    
   110   55   57 1    
   111   57   58 1    
   112   57   59 1    
   113   57  118 1    
   114   58  119 1    
   115   58  120 1    
   116   58  121 1    
   117   59   60 am   BACKBONE|DICT|INTERRES
   118   59  122 1    
   119   60   61 2    
   120   60   62 1    
   121   62   63 1    
   122   62   64 1    
   123   62  123 1    
   124   63  124 1    
   125   63  125 1    
   126   63  126 1    
   127   64   65 am   BACKBONE|DICT|INTERRES
   128   64  127 1    
   129   65   66 2    
@<TRIPOS>SUBSTRUCTURE
     1 UNK         1 GROUP             0       ****    0 ROOT    
