@<TRIPOS>MOLECULE
3R135
127   129    1
SMALL
USER_CHARGES


@<TRIPOS>ATOM
      1 CA        -79.2930   29.9394  -76.8980 C.3       0 UNK        -0.1998 
      2 C         -79.3419   28.8998  -75.7896 C.2       0 UNK         0.4909 
      3 O         -78.6263   27.9004  -75.8547 O.2       0 UNK        -0.5240 
      4 N         -80.1751   29.1316  -74.7684 N.am      1 UNK        -0.4739 
      5 CA        -80.3566   28.2189  -73.6382 C.3       1 UNK         0.0864 
      6 C6        -81.0471   28.9312  -72.4458 C.3       11 UNK        -0.0881 
      7 S7        -80.7197   28.1083  -70.8486 S.3       11 UNK        -0.2682 
      8 C8        -79.2757   29.0390  -70.2349 C.3       11 UNK         0.0289 
      9 C9        -78.0898   28.9182  -71.1805 C.ar      11 UNK        -0.0687 
     10 C10       -77.4331   27.6926  -71.3263 C.ar      11 UNK        -0.0823 
     11 C11       -76.3982   27.5501  -72.2542 C.ar      11 UNK        -0.0830 
     12 C12       -75.9922   28.6538  -73.0089 C.ar      11 UNK        -0.1021 
     13 C13       -76.6236   29.8916  -72.8537 C.ar      11 UNK        -0.0753 
     14 C14       -77.6780   30.0155  -71.9439 C.ar      11 UNK        -0.0933 
     15 C15       -76.1736   31.0924  -73.6757 C.3       11 UNK         0.0166 
     16 S16       -75.3791   32.3706  -72.6481 S.3       11 UNK        -0.2615 
     17 C17       -73.8838   31.5027  -72.0619 C.3       11 UNK        -0.0865 
     18 CA        -72.5842   31.9844  -72.7641 C.3       10 UNK         0.0862 
     19 C         -71.9381   33.1809  -72.0028 C.2       10 UNK         0.5551 
     20 N         -70.8466   32.9840  -71.2728 N.am      10 UNK        -0.7319 
     21 O         -72.4307   34.3034  -72.0808 O.2       10 UNK        -0.5018 
     22 N         -71.6925   30.8439  -73.0261 N.am      10 UNK        -0.4509 
     23 C         -70.5790   30.8584  -73.7658 C.2       10 UNK         0.4899 
     24 O         -70.1415   31.8551  -74.3407 O.2       10 UNK        -0.4839 
     25 CA        -69.8259   29.5220  -73.8914 C.3       9 UNK         0.0222 
     26 CB        -69.4052   28.9612  -72.5166 C.3       9 UNK        -0.1966 
     27 N         -70.5452   28.5198  -74.6890 N.am      9 UNK        -0.4218 
     28 C         -71.7265   27.9371  -74.4365 C.2       9 UNK         0.5020 
     29 O         -72.4065   28.1331  -73.4254 O.2       9 UNK        -0.5274 
     30 CA        -72.2223   26.9356  -75.4921 C.3       8 UNK         0.0270 
     31 CB        -72.1473   25.5022  -74.9434 C.3       8 UNK        -0.1976 
     32 N         -73.5897   27.2340  -75.9261 N.am      8 UNK        -0.4313 
     33 C         -73.9471   28.3398  -76.5950 C.2       8 UNK         0.5041 
     34 O         -73.1441   29.2087  -76.9416 O.2       8 UNK        -0.5577 
     35 CA        -75.4429   28.5152  -76.9286 C.3       7 UNK         0.0284 
     36 CB        -75.6704   29.4402  -78.1442 C.3       7 UNK        -0.1958 
     37 N         -76.1814   27.2563  -77.0880 N.am      7 UNK        -0.4454 
     38 C         -75.9876   26.3099  -78.0164 C.2       7 UNK         0.5089 
     39 O         -75.0959   26.3470  -78.8668 O.2       7 UNK        -0.5125 
     40 CA        -76.9651   25.1190  -77.9653 C.3       6 UNK         0.0408 
     41 CB        -76.8532   24.1994  -79.1987 C.3       6 UNK        -0.1791 
     42 N         -76.8426   24.3318  -76.7329 N.am      6 UNK        -0.4762 
     43 C         -75.7381   23.7388  -76.2479 C.2       6 UNK         0.5007 
     44 O         -74.6307   23.8106  -76.7791 O.2       6 UNK        -0.5032 
     45 CA        -75.8931   22.8754  -74.9811 C.3       5 UNK         0.0783 
     46 C46       -75.6985   23.6611  -73.6574 C.3       11 UNK        -0.0857 
     47 S47       -76.8139   25.0834  -73.4028 S.3       11 UNK        -0.2512 
     48 C48       -75.7333   26.1992  -72.4541 C.3       11 UNK         0.0225 
     49 N         -77.1472   22.1143  -75.0181 N.am      5 UNK        -0.4615 
     50 C         -77.2113   20.7959  -75.2638 C.2       4 UNK         0.5053 
     51 O         -76.2211   20.0814  -75.4247 O.2       4 UNK        -0.5105 
     52 CA        -78.6020   20.1389  -75.3415 C.3       4 UNK         0.0263 
     53 CB        -79.0013   19.5713  -73.9697 C.3       4 UNK        -0.1981 
     54 N         -79.6509   21.0424  -75.8085 N.am      4 UNK        -0.4224 
     55 C         -79.7401   21.5607  -77.0419 C.2       3 UNK         0.4895 
     56 O         -79.0003   21.2454  -77.9738 O.2       3 UNK        -0.5091 
     57 CA        -80.8288   22.6295  -77.2688 C.3       3 UNK         0.0250 
     58 CB        -82.0240   22.0287  -78.0264 C.3       3 UNK        -0.1996 
     59 N         -81.3094   23.2662  -76.0335 N.am      3 UNK        -0.4254 
     60 C         -80.5435   23.9930  -75.2086 C.2       2 UNK         0.5004 
     61 O         -79.3435   24.1988  -75.4023 O.2       2 UNK        -0.5226 
     62 CA        -81.1951   24.4783  -73.9071 C.3       2 UNK         0.0269 
     63 CB        -80.8920   23.4923  -72.7666 C.3       2 UNK        -0.1926 
     64 N         -80.6776   25.7934  -73.5407 N.am      2 UNK        -0.4687 
     65 C         -81.1055   26.9436  -74.0723 C.2       1 UNK         0.5165 
     66 O         -82.0584   27.0260  -74.8530 O.2       1 UNK        -0.5079 
     67 H67       -78.3721   30.5170  -76.8265 H         1 UNK         0.0900 
     68 H68       -80.1342   30.6301  -76.8435 H         1 UNK         0.0900 
     69 H69       -79.3191   29.4522  -77.8723 H         1 UNK         0.0900 
     70 H70       -80.7690   29.9479  -74.7809 H         1 UNK         0.2959 
     71 H71       -79.3537   27.9155  -73.3346 H         1 UNK         0.1079 
     72 H72       -82.1263   28.9974  -72.5980 H         1 UNK         0.0837 
     73 H73       -80.6998   29.9627  -72.3682 H         1 UNK         0.0837 
     74 H74       -78.9955   28.6544  -69.2534 H         1 UNK         0.0685 
     75 H75       -79.5547   30.0837  -70.0882 H         1 UNK         0.0685 
     76 H76       -77.7572   26.8379  -70.7480 H         1 UNK         0.1434 
     77 H77       -75.1798   28.5484  -73.7141 H         1 UNK         0.1329 
     78 H78       -78.1795   30.9676  -71.8370 H         1 UNK         0.1335 
     79 H79       -75.4796   30.7922  -74.4622 H         1 UNK         0.0680 
     80 H80       -77.0392   31.5267  -74.1779 H         1 UNK         0.0680 
     81 H81       -74.0242   30.4334  -72.2187 H         1 UNK         0.1032 
     82 H82       -73.8174   31.6118  -70.9774 H         1 UNK         0.1032 
     83 H83       -72.8497   32.3647  -73.7525 H         1 UNK         0.0461 
     84 H84       -70.4362   32.0666  -71.2084 H         1 UNK         0.3453 
     85 H85       -70.4289   33.7615  -70.7861 H         1 UNK         0.3453 
     86 H86       -72.0021   29.9370  -72.6921 H         1 UNK         0.2984 
     87 H87       -68.9083   29.7336  -74.4430 H         1 UNK         0.0554 
     88 H88       -68.7722   28.0811  -72.6287 H         1 UNK         0.0847 
     89 H89       -70.2593   28.6767  -71.9016 H         1 UNK         0.0847 
     90 H90       -68.8325   29.6996  -71.9540 H         1 UNK         0.0847 
     91 H91       -70.1035   28.2938  -75.5699 H         1 UNK         0.3141 
     92 H92       -71.5783   26.9947  -76.3722 H         1 UNK         0.0743 
     93 H93       -72.7908   25.3682  -74.0744 H         1 UNK         0.0784 
     94 H94       -72.4344   24.7708  -75.6978 H         1 UNK         0.0784 
     95 H95       -71.1307   25.2581  -74.6323 H         1 UNK         0.0784 
     96 H96       -74.3047   26.5597  -75.6971 H         1 UNK         0.3213 
     97 H97       -75.8897   29.0042  -76.0630 H         1 UNK         0.0855 
     98 H98       -75.1531   29.0735  -79.0314 H         1 UNK         0.0814 
     99 H99       -75.2987   30.4460  -77.9451 H         1 UNK         0.0814 
    100 H100      -76.7280   29.5283  -78.3892 H         1 UNK         0.0814 
    101 H101      -76.9913   27.1622  -76.4756 H         1 UNK         0.3105 
    102 H102      -77.9721   25.5397  -77.9597 H         1 UNK         0.0547 
    103 H103      -77.0135   24.7613  -80.1195 H         1 UNK         0.0837 
    104 H104      -75.8704   23.7325  -79.2697 H         1 UNK         0.0837 
    105 H105      -77.5991   23.4052  -79.1690 H         1 UNK         0.0837 
    106 H106      -77.7003   24.2654  -76.1852 H         1 UNK         0.3020 
    107 H107      -75.0560   22.1744  -75.0217 H         1 UNK         0.1245 
    108 H108      -75.8210   22.9842  -72.8105 H         1 UNK         0.0781 
    109 H109      -74.6665   24.0080  -73.6006 H         1 UNK         0.0781 
    110 H110      -75.5048   25.7508  -71.4862 H         1 UNK         0.0836 
    111 H111      -74.7814   26.3225  -72.9727 H         1 UNK         0.0836 
    112 H112      -78.0004   22.6551  -74.9364 H         1 UNK         0.3022 
    113 H113      -78.5351   19.3101  -76.0497 H         1 UNK         0.0747 
    114 H114      -79.9473   19.0320  -74.0223 H         1 UNK         0.0793 
    115 H115      -78.2505   18.8687  -73.6051 H         1 UNK         0.0793 
    116 H116      -79.1023   20.3575  -73.2201 H         1 UNK         0.0793 
    117 H117      -80.3221   21.3491  -75.1210 H         1 UNK         0.3047 
    118 H118      -80.3841   23.4096  -77.8908 H         1 UNK         0.0822 
    119 H119      -82.7613   22.7921  -78.2757 H         1 UNK         0.0807 
    120 H120      -82.5240   21.2540  -77.4438 H         1 UNK         0.0807 
    121 H121      -81.7029   21.5741  -78.9648 H         1 UNK         0.0807 
    122 H122      -82.2824   23.1226  -75.8020 H         1 UNK         0.2946 
    123 H123      -82.2773   24.5422  -74.0436 H         1 UNK         0.1144 
    124 H124      -81.3383   23.8234  -71.8286 H         1 UNK         0.0793 
    125 H125      -79.8187   23.3794  -72.6040 H         1 UNK         0.0793 
    126 H126      -81.2961   22.5027  -72.9835 H         1 UNK         0.0793 
    127 H127      -79.8588   25.8038  -72.9491 H         1 UNK         0.2896 
@<TRIPOS>BOND
     1    1    2 1    
     2    1   67 1    
     3    1   68 1    
     4    1   69 1    
     5    2    3 2    
     6    2    4 am   BACKBONE|DICT|INTERRES
     7    4    5 1    
     8    4   70 1    
     9    5    6 1    
    10    5   65 1    
    11    5   71 1    
    12    6    7 1    
    13    6   72 1    
    14    6   73 1    
    15    7    8 1    
    16    8    9 1    
    17    8   74 1    
    18    8   75 1    
    19    9   10 ar   
    20    9   14 ar   
    21   10   11 ar   
    22   10   76 1    
    23   11   12 ar   
    24   11   48 1    
    25   12   13 ar   
    26   12   77 1    
    27   13   14 ar   
    28   13   15 1    
    29   14   78 1    
    30   15   16 1    
    31   15   79 1    
    32   15   80 1    
    33   16   17 1    
    34   17   18 1    
    35   17   81 1    
    36   17   82 1    
    37   18   19 1    
    38   18   22 1    
    39   18   83 1    
    40   19   20 am   BACKBONE|DICT|INTERRES
    41   19   21 2    
    42   20   84 1    
    43   20   85 1    
    44   22   23 am   BACKBONE|DICT|INTERRES
    45   22   86 1    
    46   23   24 2    
    47   23   25 1    
    48   25   26 1    
    49   25   27 1    
    50   25   87 1    
    51   26   88 1    
    52   26   89 1    
    53   26   90 1    
    54   27   28 am   BACKBONE|DICT|INTERRES
    55   27   91 1    
    56   28   29 2    
    57   28   30 1    
    58   30   31 1    
    59   30   32 1    
    60   30   92 1    
    61   31   93 1    
    62   31   94 1    
    63   31   95 1    
    64   32   33 am   BACKBONE|DICT|INTERRES
    65   32   96 1    
    66   33   34 2    
    67   33   35 1    
    68   35   36 1    
    69   35   37 1    
    70   35   97 1    
    71   36   98 1    
    72   36   99 1    
    73   36  100 1    
    74   37   38 am   BACKBONE|DICT|INTERRES
    75   37  101 1    
    76   38   39 2    
    77   38   40 1    
    78   40   41 1    
    79   40   42 1    
    80   40  102 1    
    81   41  103 1    
    82   41  104 1    
    83   41  105 1    
    84   42   43 am   BACKBONE|DICT|INTERRES
    85   42  106 1    
    86   43   44 2    
    87   43   45 1    
    88   45   46 1    
    89   45   49 1    
    90   45  107 1    
    91   46   47 1    
    92   46  108 1    
    93   46  109 1    
    94   47   48 1    
    95   48  110 1    
    96   48  111 1    
    97   49   50 am   BACKBONE|DICT|INTERRES
    98   49  112 1    
    99   50   51 2    
   100   50   52 1    
   101   52   53 1    
   102   52   54 1    
   103   52  113 1    
   104   53  114 1    
   105   53  115 1    
   106   53  116 1    
   107   54   55 am   BACKBONE|DICT|INTERRES
   108   54  117 1    
   109   55   56 2    
   110   55   57 1    
   111   57   58 1    
   112   57   59 1    
   113   57  118 1    
   114   58  119 1    
   115   58  120 1    
   116   58  121 1    
   117   59   60 am   BACKBONE|DICT|INTERRES
   118   59  122 1    
   119   60   61 2    
   120   60   62 1    
   121   62   63 1    
   122   62   64 1    
   123   62  123 1    
   124   63  124 1    
   125   63  125 1    
   126   63  126 1    
   127   64   65 am   BACKBONE|DICT|INTERRES
   128   64  127 1    
   129   65   66 2    
@<TRIPOS>SUBSTRUCTURE
     1 UNK         1 GROUP             0       ****    0 ROOT    
