@<TRIPOS>MOLECULE
3R135
127   129    1
SMALL
USER_CHARGES


@<TRIPOS>ATOM
      1 CA        -78.8460   30.6728  -75.9525 C.3       0 UNK        -0.1998 
      2 C         -79.0674   29.5742  -74.9241 C.2       0 UNK         0.4909 
      3 O         -78.1930   28.7321  -74.7340 O.2       0 UNK        -0.5240 
      4 N         -80.2317   29.5772  -74.2622 N.am      1 UNK        -0.4739 
      5 CA        -80.6500   28.5297  -73.3275 C.3       1 UNK         0.0864 
      6 C6        -81.7580   29.0467  -72.3753 C.3       11 UNK        -0.0881 
      7 S7        -81.9934   27.9787  -70.9130 S.3       11 UNK        -0.2682 
      8 C8        -81.0217   28.8533  -69.6441 C.3       11 UNK         0.0289 
      9 C9        -79.5371   28.8689  -69.9777 C.ar      11 UNK        -0.0687 
     10 C10       -78.7902   27.6900  -69.9060 C.ar      11 UNK        -0.0823 
     11 C11       -77.4332   27.6873  -70.2414 C.ar      11 UNK        -0.0830 
     12 C12       -76.8141   28.8845  -70.6178 C.ar      11 UNK        -0.1021 
     13 C13       -77.5485   30.0725  -70.6821 C.ar      11 UNK        -0.0753 
     14 C14       -78.9110   30.0567  -70.3669 C.ar      11 UNK        -0.0933 
     15 C15       -76.8741   31.3796  -71.0727 C.3       11 UNK         0.0166 
     16 S16       -76.6245   31.5092  -72.8723 S.3       11 UNK        -0.2615 
     17 C17       -74.8650   31.0552  -73.0674 C.3       11 UNK        -0.0865 
     18 CA        -74.5895   29.9856  -74.1703 C.3       10 UNK         0.0862 
     19 C         -74.5675   30.5641  -75.6213 C.2       10 UNK         0.5551 
     20 N         -73.7108   30.0820  -76.5152 N.am      10 UNK        -0.7319 
     21 O         -75.3435   31.4539  -75.9579 O.2       10 UNK        -0.5018 
     22 N         -73.4181   29.1452  -73.8581 N.am      10 UNK        -0.4509 
     23 C         -72.1807   29.5962  -73.6059 C.2       10 UNK         0.4899 
     24 O         -71.8864   30.7889  -73.5227 O.2       10 UNK        -0.4839 
     25 CA        -71.0673   28.5540  -73.3993 C.3       9 UNK         0.0222 
     26 CB        -70.9092   28.2428  -71.9017 C.3       9 UNK        -0.1966 
     27 N         -71.2249   27.2958  -74.1359 N.am      9 UNK        -0.4218 
     28 C         -71.3093   27.1599  -75.4670 C.2       9 UNK         0.5020 
     29 O         -71.3853   28.1102  -76.2485 O.2       9 UNK        -0.5274 
     30 CA        -71.2837   25.7273  -76.0270 C.3       8 UNK         0.0270 
     31 CB        -71.2925   24.6168  -74.9540 C.3       8 UNK        -0.1976 
     32 N         -72.4260   25.5375  -76.9147 N.am      8 UNK        -0.4313 
     33 C         -72.3863   24.9735  -78.1284 C.2       8 UNK         0.5041 
     34 O         -71.3459   24.5777  -78.6579 O.2       8 UNK        -0.5577 
     35 CA        -73.7170   24.7795  -78.8859 C.3       7 UNK         0.0284 
     36 CB        -74.0195   23.2813  -79.0602 C.3       7 UNK        -0.1958 
     37 N         -74.8668   25.4143  -78.2389 N.am      7 UNK        -0.4454 
     38 C         -75.1262   26.7281  -78.2439 C.2       7 UNK         0.5089 
     39 O         -74.4745   27.5528  -78.8841 O.2       7 UNK        -0.5125 
     40 CA        -76.2864   27.2025  -77.3520 C.3       6 UNK         0.0408 
     41 CB        -77.6069   27.2056  -78.1367 C.3       6 UNK        -0.1791 
     42 N         -76.4519   26.4011  -76.1361 N.am      6 UNK        -0.4762 
     43 C         -75.5435   26.2694  -75.1593 C.2       6 UNK         0.5007 
     44 O         -74.4271   26.7832  -75.1853 O.2       6 UNK        -0.5032 
     45 CA        -75.9263   25.3796  -73.9684 C.3       5 UNK         0.0783 
     46 C46       -76.8753   26.1398  -73.0154 C.3       11 UNK        -0.0857 
     47 S47       -77.2237   25.2145  -71.4846 S.3       11 UNK        -0.2512 
     48 C48       -76.6442   26.3849  -70.2120 C.3       11 UNK         0.0225 
     49 N         -76.4865   24.1159  -74.4499 N.am      5 UNK        -0.4615 
     50 C         -75.7567   23.1056  -74.9412 C.2       4 UNK         0.5053 
     51 O         -74.5267   23.1022  -74.9667 O.2       4 UNK        -0.5105 
     52 CA        -76.5193   21.8953  -75.5103 C.3       4 UNK         0.0263 
     53 CB        -76.6998   20.8201  -74.4270 C.3       4 UNK        -0.1981 
     54 N         -77.8283   22.2426  -76.0691 N.am      4 UNK        -0.4224 
     55 C         -78.0143   22.9802  -77.1733 C.2       3 UNK         0.4895 
     56 O         -77.0986   23.4135  -77.8722 O.2       3 UNK        -0.5091 
     57 CA        -79.4708   23.3463  -77.5179 C.3       3 UNK         0.0250 
     58 CB        -80.1355   22.2207  -78.3261 C.3       3 UNK        -0.1996 
     59 N         -80.2945   23.6666  -76.3422 N.am      3 UNK        -0.4254 
     60 C         -80.0034   24.6345  -75.4618 C.2       2 UNK         0.5004 
     61 O         -78.9945   25.3353  -75.5448 O.2       2 UNK        -0.5226 
     62 CA        -80.9485   24.8009  -74.2590 C.3       2 UNK         0.0269 
     63 CB        -80.7067   23.6816  -73.2320 C.3       2 UNK        -0.1926 
     64 N         -80.7461   26.0906  -73.5932 N.am      2 UNK        -0.4687 
     65 C         -81.0947   27.2759  -74.1102 C.2       1 UNK         0.5165 
     66 O         -81.7579   27.4025  -75.1441 O.2       1 UNK        -0.5079 
     67 H67       -79.7557   31.2406  -76.1461 H         1 UNK         0.0900 
     68 H68       -78.5070   30.2419  -76.8942 H         1 UNK         0.0900 
     69 H69       -78.0802   31.3635  -75.6015 H         1 UNK         0.0900 
     70 H70       -80.9283   30.2736  -74.4839 H         1 UNK         0.2959 
     71 H71       -79.7747   28.2656  -72.7290 H         1 UNK         0.1079 
     72 H72       -81.5139   30.0521  -72.0286 H         1 UNK         0.0837 
     73 H73       -82.7110   29.1403  -72.8998 H         1 UNK         0.0837 
     74 H74       -81.4083   29.8669  -69.5260 H         1 UNK         0.0685 
     75 H75       -81.1680   28.3570  -68.6837 H         1 UNK         0.0685 
     76 H76       -79.2730   26.7666  -69.6156 H         1 UNK         0.1434 
     77 H77       -75.7636   28.8927  -70.8733 H         1 UNK         0.1329 
     78 H78       -79.4847   30.9715  -70.4240 H         1 UNK         0.1335 
     79 H79       -77.4890   32.2236  -70.7562 H         1 UNK         0.0680 
     80 H80       -75.9297   31.4897  -70.5384 H         1 UNK         0.0680 
     81 H81       -74.5027   30.6841  -72.1086 H         1 UNK         0.1032 
     82 H82       -74.2921   31.9640  -73.2597 H         1 UNK         0.1032 
     83 H83       -75.4278   29.2882  -74.1617 H         1 UNK         0.0461 
     84 H84       -73.7171   30.4520  -77.4515 H         1 UNK         0.3453 
     85 H85       -73.0512   29.3529  -76.2687 H         1 UNK         0.3453 
     86 H86       -73.5527   28.1526  -74.0187 H         1 UNK         0.2984 
     87 H87       -70.1379   29.0089  -73.7481 H         1 UNK         0.0554 
     88 H88       -70.0462   27.6033  -71.7153 H         1 UNK         0.0847 
     89 H89       -71.7919   27.7455  -71.4973 H         1 UNK         0.0847 
     90 H90       -70.7596   29.1574  -71.3258 H         1 UNK         0.0847 
     91 H91       -71.1901   26.4502  -73.5854 H         1 UNK         0.3141 
     92 H92       -70.3533   25.6458  -76.5923 H         1 UNK         0.0743 
     93 H93       -70.4217   24.6811  -74.3003 H         1 UNK         0.0784 
     94 H94       -72.1904   24.6558  -74.3351 H         1 UNK         0.0784 
     95 H95       -71.2643   23.6304  -75.4178 H         1 UNK         0.0784 
     96 H96       -73.3057   25.9041  -76.5634 H         1 UNK         0.3213 
     97 H97       -73.5916   25.2212  -79.8767 H         1 UNK         0.0855 
     98 H98       -73.2026   22.7705  -79.5717 H         1 UNK         0.0814 
     99 H99       -74.9198   23.1248  -79.6549 H         1 UNK         0.0814 
    100 H100      -74.1637   22.7871  -78.0983 H         1 UNK         0.0814 
    101 H101      -75.5098   24.8014  -77.7482 H         1 UNK         0.3105 
    102 H102      -76.0716   28.2263  -77.0401 H         1 UNK         0.0547 
    103 H103      -77.5358   27.8424  -79.0192 H         1 UNK         0.0837 
    104 H104      -77.8751   26.2040  -78.4740 H         1 UNK         0.0837 
    105 H105      -78.4279   27.5831  -77.5263 H         1 UNK         0.0837 
    106 H106      -77.3698   25.9802  -75.9919 H         1 UNK         0.3020 
    107 H107      -75.0061   25.1613  -73.4209 H         1 UNK         0.1245 
    108 H108      -77.8262   26.3608  -73.4994 H         1 UNK         0.0781 
    109 H109      -76.4450   27.1104  -72.7644 H         1 UNK         0.0781 
    110 H110      -75.5778   26.5686  -70.3519 H         1 UNK         0.0836 
    111 H111      -76.7499   25.9226  -69.2296 H         1 UNK         0.0836 
    112 H112      -77.4933   24.0820  -74.5268 H         1 UNK         0.3022 
    113 H113      -75.9117   21.4739  -76.3143 H         1 UNK         0.0747 
    114 H114      -77.1679   19.9226  -74.8316 H         1 UNK         0.0793 
    115 H115      -75.7365   20.5213  -74.0109 H         1 UNK         0.0793 
    116 H116      -77.3145   21.1781  -73.5999 H         1 UNK         0.0793 
    117 H117      -78.6414   21.9303  -75.5591 H         1 UNK         0.3047 
    118 H118      -79.4388   24.2402  -78.1442 H         1 UNK         0.0822 
    119 H119      -81.1289   22.5112  -78.6687 H         1 UNK         0.0807 
    120 H120      -80.2354   21.3052  -77.7417 H         1 UNK         0.0807 
    121 H121      -79.5478   21.9787  -79.2130 H         1 UNK         0.0807 
    122 H122      -81.1325   23.1177  -76.2110 H         1 UNK         0.2946 
    123 H123      -81.9794   24.7496  -74.6169 H         1 UNK         0.1144 
    124 H124      -81.3695   23.7837  -72.3724 H         1 UNK         0.0793 
    125 H125      -79.6798   23.6858  -72.8633 H         1 UNK         0.0793 
    126 H126      -80.8941   22.6982  -73.6649 H         1 UNK         0.0793 
    127 H127      -80.2022   26.0752  -72.7429 H         1 UNK         0.2896 
@<TRIPOS>BOND
     1    1    2 1    
     2    1   67 1    
     3    1   68 1    
     4    1   69 1    
     5    2    3 2    
     6    2    4 am   BACKBONE|DICT|INTERRES
     7    4    5 1    
     8    4   70 1    
     9    5    6 1    
    10    5   65 1    
    11    5   71 1    
    12    6    7 1    
    13    6   72 1    
    14    6   73 1    
    15    7    8 1    
    16    8    9 1    
    17    8   74 1    
    18    8   75 1    
    19    9   10 ar   
    20    9   14 ar   
    21   10   11 ar   
    22   10   76 1    
    23   11   12 ar   
    24   11   48 1    
    25   12   13 ar   
    26   12   77 1    
    27   13   14 ar   
    28   13   15 1    
    29   14   78 1    
    30   15   16 1    
    31   15   79 1    
    32   15   80 1    
    33   16   17 1    
    34   17   18 1    
    35   17   81 1    
    36   17   82 1    
    37   18   19 1    
    38   18   22 1    
    39   18   83 1    
    40   19   20 am   BACKBONE|DICT|INTERRES
    41   19   21 2    
    42   20   84 1    
    43   20   85 1    
    44   22   23 am   BACKBONE|DICT|INTERRES
    45   22   86 1    
    46   23   24 2    
    47   23   25 1    
    48   25   26 1    
    49   25   27 1    
    50   25   87 1    
    51   26   88 1    
    52   26   89 1    
    53   26   90 1    
    54   27   28 am   BACKBONE|DICT|INTERRES
    55   27   91 1    
    56   28   29 2    
    57   28   30 1    
    58   30   31 1    
    59   30   32 1    
    60   30   92 1    
    61   31   93 1    
    62   31   94 1    
    63   31   95 1    
    64   32   33 am   BACKBONE|DICT|INTERRES
    65   32   96 1    
    66   33   34 2    
    67   33   35 1    
    68   35   36 1    
    69   35   37 1    
    70   35   97 1    
    71   36   98 1    
    72   36   99 1    
    73   36  100 1    
    74   37   38 am   BACKBONE|DICT|INTERRES
    75   37  101 1    
    76   38   39 2    
    77   38   40 1    
    78   40   41 1    
    79   40   42 1    
    80   40  102 1    
    81   41  103 1    
    82   41  104 1    
    83   41  105 1    
    84   42   43 am   BACKBONE|DICT|INTERRES
    85   42  106 1    
    86   43   44 2    
    87   43   45 1    
    88   45   46 1    
    89   45   49 1    
    90   45  107 1    
    91   46   47 1    
    92   46  108 1    
    93   46  109 1    
    94   47   48 1    
    95   48  110 1    
    96   48  111 1    
    97   49   50 am   BACKBONE|DICT|INTERRES
    98   49  112 1    
    99   50   51 2    
   100   50   52 1    
   101   52   53 1    
   102   52   54 1    
   103   52  113 1    
   104   53  114 1    
   105   53  115 1    
   106   53  116 1    
   107   54   55 am   BACKBONE|DICT|INTERRES
   108   54  117 1    
   109   55   56 2    
   110   55   57 1    
   111   57   58 1    
   112   57   59 1    
   113   57  118 1    
   114   58  119 1    
   115   58  120 1    
   116   58  121 1    
   117   59   60 am   BACKBONE|DICT|INTERRES
   118   59  122 1    
   119   60   61 2    
   120   60   62 1    
   121   62   63 1    
   122   62   64 1    
   123   62  123 1    
   124   63  124 1    
   125   63  125 1    
   126   63  126 1    
   127   64   65 am   BACKBONE|DICT|INTERRES
   128   64  127 1    
   129   65   66 2    
@<TRIPOS>SUBSTRUCTURE
     1 UNK         1 GROUP             0       ****    0 ROOT    
