@<TRIPOS>MOLECULE
3R135
127   129    1
SMALL
USER_CHARGES


@<TRIPOS>ATOM
      1 CA        -84.1497   26.6864  -74.4676 C.3       0 UNK        -0.1998 
      2 C         -82.6474   26.8529  -74.3022 C.2       0 UNK         0.4909 
      3 O         -81.8814   26.1670  -74.9810 O.2       0 UNK        -0.5240 
      4 N         -82.2211   27.7607  -73.4107 N.am      1 UNK        -0.4739 
      5 CA        -80.8166   28.0761  -73.1017 C.3       1 UNK         0.0864 
      6 C6        -80.0889   26.8976  -72.3920 C.3       11 UNK        -0.0881 
      7 S7        -80.8600   26.4239  -70.8017 S.3       11 UNK        -0.2682 
      8 C8        -79.9463   27.4211  -69.5691 C.3       11 UNK         0.0289 
      9 C9        -78.4378   27.3740  -69.7724 C.ar      11 UNK        -0.0687 
     10 C10       -77.7608   26.1507  -69.7583 C.ar      11 UNK        -0.0823 
     11 C11       -76.4013   26.0894  -70.0773 C.ar      11 UNK        -0.0830 
     12 C12       -75.7077   27.2683  -70.3625 C.ar      11 UNK        -0.1021 
     13 C13       -76.3731   28.4966  -70.3744 C.ar      11 UNK        -0.0753 
     14 C14       -77.7350   28.5465  -70.0665 C.ar      11 UNK        -0.0933 
     15 C15       -75.6349   29.7591  -70.7825 C.3       11 UNK         0.0166 
     16 S16       -76.0173   30.1821  -72.5106 S.3       11 UNK        -0.2615 
     17 C17       -74.6907   31.3810  -72.8736 C.3       11 UNK        -0.0865 
     18 CA        -74.3955   31.5406  -74.3897 C.3       10 UNK         0.0862 
     19 C         -73.1982   32.5165  -74.5902 C.2       10 UNK         0.5551 
     20 N         -72.0048   32.0385  -74.9275 N.am      10 UNK        -0.7319 
     21 O         -73.3581   33.7238  -74.4293 O.2       10 UNK        -0.5018 
     22 N         -74.2345   30.2382  -75.0529 N.am      10 UNK        -0.4509 
     23 C         -74.1168   30.0350  -76.3714 C.2       10 UNK         0.4899 
     24 O         -74.2613   30.9229  -77.2126 O.2       10 UNK        -0.4839 
     25 CA        -73.7842   28.5985  -76.8288 C.3       9 UNK         0.0222 
     26 CB        -72.8517   28.5846  -78.0575 C.3       9 UNK        -0.1966 
     27 N         -73.2500   27.7342  -75.7657 N.am      9 UNK        -0.4218 
     28 C         -72.1371   27.9255  -75.0365 C.2       9 UNK         0.5020 
     29 O         -71.3891   28.8977  -75.1549 O.2       9 UNK        -0.5274 
     30 CA        -71.8346   26.8689  -73.9664 C.3       8 UNK         0.0270 
     31 CB        -72.7273   27.0873  -72.7330 C.3       8 UNK        -0.1976 
     32 N         -72.0400   25.5202  -74.4952 N.am      8 UNK        -0.4313 
     33 C         -71.0945   24.8029  -75.1194 C.2       8 UNK         0.5041 
     34 O         -69.9188   25.1563  -75.2208 O.2       8 UNK        -0.5577 
     35 CA        -71.5297   23.4662  -75.7487 C.3       7 UNK         0.0284 
     36 CB        -71.4090   22.3246  -74.7261 C.3       7 UNK        -0.1958 
     37 N         -72.8958   23.5053  -76.2741 N.am      7 UNK        -0.4454 
     38 C         -73.2924   24.2386  -77.3246 C.2       7 UNK         0.5089 
     39 O         -72.5206   24.8637  -78.0510 O.2       7 UNK        -0.5125 
     40 CA        -74.8069   24.3071  -77.6001 C.3       6 UNK         0.0408 
     41 CB        -75.1823   23.4086  -78.7885 C.3       6 UNK        -0.1791 
     42 N         -75.6455   23.9538  -76.4485 N.am      6 UNK        -0.4762 
     43 C         -75.7034   24.6286  -75.2917 C.2       6 UNK         0.5007 
     44 O         -75.0191   25.6280  -75.0581 O.2       6 UNK        -0.5032 
     45 CA        -76.6862   24.0801  -74.2357 C.3       5 UNK         0.0783 
     46 C46       -76.6344   24.8278  -72.8809 C.3       11 UNK        -0.0857 
     47 S47       -75.1552   24.3918  -71.8979 S.3       11 UNK        -0.2512 
     48 C48       -75.7025   24.7414  -70.1905 C.3       11 UNK         0.0225 
     49 N         -78.0428   24.0666  -74.7883 N.am      5 UNK        -0.4615 
     50 C         -78.5813   23.0496  -75.4731 C.2       4 UNK         0.5053 
     51 O         -77.9906   21.9943  -75.7038 O.2       4 UNK        -0.5105 
     52 CA        -79.9992   23.2637  -76.0216 C.3       4 UNK         0.0263 
     53 CB        -81.0463   23.0212  -74.9225 C.3       4 UNK        -0.1981 
     54 N         -80.1706   24.6044  -76.5872 N.am      4 UNK        -0.4224 
     55 C         -79.6464   24.9964  -77.7586 C.2       3 UNK         0.4895 
     56 O         -79.0044   24.2564  -78.5046 O.2       3 UNK        -0.5091 
     57 CA        -79.8628   26.4635  -78.1595 C.3       3 UNK         0.0250 
     58 CB        -81.3352   26.7402  -78.5071 C.3       3 UNK        -0.1996 
     59 N         -79.4181   27.3811  -77.1112 N.am      3 UNK        -0.4254 
     60 C         -78.1388   27.6397  -76.8094 C.2       2 UNK         0.5004 
     61 O         -77.1886   27.1750  -77.4360 O.2       2 UNK        -0.5226 
     62 CA        -77.8548   28.5516  -75.5995 C.3       2 UNK         0.0269 
     63 CB        -77.7970   30.0335  -76.0213 C.3       2 UNK        -0.1926 
     64 N         -78.7568   28.3358  -74.4553 N.am      2 UNK        -0.4687 
     65 C         -80.0706   28.5958  -74.3586 C.2       1 UNK         0.5165 
     66 O         -80.7041   29.1876  -75.2365 O.2       1 UNK        -0.5079 
     67 H67       -84.4393   26.9119  -75.4935 H         1 UNK         0.0900 
     68 H68       -84.4369   25.6582  -74.2499 H         1 UNK         0.0900 
     69 H69       -84.7090   27.3442  -73.8028 H         1 UNK         0.0900 
     70 H70       -82.9034   28.3087  -72.9062 H         1 UNK         0.2959 
     71 H71       -80.8341   28.9209  -72.4113 H         1 UNK         0.1079 
     72 H72       -80.0893   26.0126  -73.0296 H         1 UNK         0.0837 
     73 H73       -79.0385   27.1213  -72.2212 H         1 UNK         0.0837 
     74 H74       -80.3107   28.4484  -69.6167 H         1 UNK         0.0685 
     75 H75       -80.1851   27.0561  -68.5694 H         1 UNK         0.0685 
     76 H76       -78.3116   25.2412  -69.5600 H         1 UNK         0.1434 
     77 H77       -74.6601   27.2198  -70.6237 H         1 UNK         0.1329 
     78 H78       -78.2539   29.4947  -70.1047 H         1 UNK         0.1335 
     79 H79       -74.5597   29.6181  -70.6624 H         1 UNK         0.0680 
     80 H80       -75.9171   30.5883  -70.1320 H         1 UNK         0.0680 
     81 H81       -73.7847   31.0662  -72.3518 H         1 UNK         0.1032 
     82 H82       -74.9726   32.3421  -72.4388 H         1 UNK         0.1032 
     83 H83       -75.2645   32.0163  -74.8480 H         1 UNK         0.0461 
     84 H84       -71.2347   32.6753  -75.0555 H         1 UNK         0.3453 
     85 H85       -71.8651   31.0433  -75.0525 H         1 UNK         0.3453 
     86 H86       -74.1230   29.4474  -74.4377 H         1 UNK         0.2984 
     87 H87       -74.7310   28.1499  -77.1289 H         1 UNK         0.0554 
     88 H88       -73.3058   29.1039  -78.9022 H         1 UNK         0.0847 
     89 H89       -72.6406   27.5665  -78.3836 H         1 UNK         0.0847 
     90 H90       -71.8999   29.0738  -77.8485 H         1 UNK         0.0847 
     91 H91       -73.8335   26.9299  -75.5382 H         1 UNK         0.3141 
     92 H92       -70.7946   26.9882  -73.6549 H         1 UNK         0.0743 
     93 H93       -73.7875   26.9982  -72.9744 H         1 UNK         0.0784 
     94 H94       -72.5028   26.3624  -71.9504 H         1 UNK         0.0784 
     95 H95       -72.5723   28.0804  -72.3092 H         1 UNK         0.0784 
     96 H96       -72.9917   25.1744  -74.4904 H         1 UNK         0.3213 
     97 H97       -70.8537   23.2559  -76.5805 H         1 UNK         0.0855 
     98 H98       -72.0754   22.4698  -73.8747 H         1 UNK         0.0814 
     99 H99       -70.3924   22.2588  -74.3356 H         1 UNK         0.0814 
    100 H100      -71.6433   21.3602  -75.1772 H         1 UNK         0.0814 
    101 H101      -73.6011   22.9979  -75.7607 H         1 UNK         0.3105 
    102 H102      -75.0377   25.3404  -77.8682 H         1 UNK         0.0547 
    103 H103      -76.2342   23.5216  -79.0526 H         1 UNK         0.0837 
    104 H104      -74.9996   22.3553  -78.5731 H         1 UNK         0.0837 
    105 H105      -74.5991   23.6672  -79.6734 H         1 UNK         0.0837 
    106 H106      -76.2592   23.1554  -76.5605 H         1 UNK         0.3020 
    107 H107      -76.3859   23.0476  -74.0398 H         1 UNK         0.1245 
    108 H108      -77.5115   24.5621  -72.2883 H         1 UNK         0.0781 
    109 H109      -76.6768   25.9105  -73.0147 H         1 UNK         0.0781 
    110 H110      -74.8367   24.7248  -69.5273 H         1 UNK         0.0836 
    111 H111      -76.3588   23.9347  -69.8603 H         1 UNK         0.0836 
    112 H112      -78.5790   24.9154  -74.6968 H         1 UNK         0.3022 
    113 H113      -80.1665   22.5317  -76.8148 H         1 UNK         0.0747 
    114 H114      -82.0592   23.1346  -75.3095 H         1 UNK         0.0793 
    115 H115      -80.9633   22.0105  -74.5205 H         1 UNK         0.0793 
    116 H116      -80.9300   23.7147  -74.0886 H         1 UNK         0.0793 
    117 H117      -80.7348   25.2608  -76.0464 H         1 UNK         0.3047 
    118 H118      -79.2661   26.6542  -79.0544 H         1 UNK         0.0822 
    119 H119      -81.4685   27.7573  -78.8762 H         1 UNK         0.0807 
    120 H120      -81.9916   26.6105  -77.6463 H         1 UNK         0.0807 
    121 H121      -81.6845   26.0641  -79.2886 H         1 UNK         0.0807 
    122 H122      -80.1341   27.8360  -76.5531 H         1 UNK         0.2946 
    123 H123      -76.8595   28.2788  -75.2423 H         1 UNK         0.1144 
    124 H124      -78.7495   30.3915  -76.4112 H         1 UNK         0.0793 
    125 H125      -77.0584   30.1837  -76.8089 H         1 UNK         0.0793 
    126 H126      -77.5143   30.6728  -75.1854 H         1 UNK         0.0793 
    127 H127      -78.3198   27.8805  -73.6671 H         1 UNK         0.2896 
@<TRIPOS>BOND
     1    1    2 1    
     2    1   67 1    
     3    1   68 1    
     4    1   69 1    
     5    2    3 2    
     6    2    4 am   BACKBONE|DICT|INTERRES
     7    4    5 1    
     8    4   70 1    
     9    5    6 1    
    10    5   65 1    
    11    5   71 1    
    12    6    7 1    
    13    6   72 1    
    14    6   73 1    
    15    7    8 1    
    16    8    9 1    
    17    8   74 1    
    18    8   75 1    
    19    9   10 ar   
    20    9   14 ar   
    21   10   11 ar   
    22   10   76 1    
    23   11   12 ar   
    24   11   48 1    
    25   12   13 ar   
    26   12   77 1    
    27   13   14 ar   
    28   13   15 1    
    29   14   78 1    
    30   15   16 1    
    31   15   79 1    
    32   15   80 1    
    33   16   17 1    
    34   17   18 1    
    35   17   81 1    
    36   17   82 1    
    37   18   19 1    
    38   18   22 1    
    39   18   83 1    
    40   19   20 am   BACKBONE|DICT|INTERRES
    41   19   21 2    
    42   20   84 1    
    43   20   85 1    
    44   22   23 am   BACKBONE|DICT|INTERRES
    45   22   86 1    
    46   23   24 2    
    47   23   25 1    
    48   25   26 1    
    49   25   27 1    
    50   25   87 1    
    51   26   88 1    
    52   26   89 1    
    53   26   90 1    
    54   27   28 am   BACKBONE|DICT|INTERRES
    55   27   91 1    
    56   28   29 2    
    57   28   30 1    
    58   30   31 1    
    59   30   32 1    
    60   30   92 1    
    61   31   93 1    
    62   31   94 1    
    63   31   95 1    
    64   32   33 am   BACKBONE|DICT|INTERRES
    65   32   96 1    
    66   33   34 2    
    67   33   35 1    
    68   35   36 1    
    69   35   37 1    
    70   35   97 1    
    71   36   98 1    
    72   36   99 1    
    73   36  100 1    
    74   37   38 am   BACKBONE|DICT|INTERRES
    75   37  101 1    
    76   38   39 2    
    77   38   40 1    
    78   40   41 1    
    79   40   42 1    
    80   40  102 1    
    81   41  103 1    
    82   41  104 1    
    83   41  105 1    
    84   42   43 am   BACKBONE|DICT|INTERRES
    85   42  106 1    
    86   43   44 2    
    87   43   45 1    
    88   45   46 1    
    89   45   49 1    
    90   45  107 1    
    91   46   47 1    
    92   46  108 1    
    93   46  109 1    
    94   47   48 1    
    95   48  110 1    
    96   48  111 1    
    97   49   50 am   BACKBONE|DICT|INTERRES
    98   49  112 1    
    99   50   51 2    
   100   50   52 1    
   101   52   53 1    
   102   52   54 1    
   103   52  113 1    
   104   53  114 1    
   105   53  115 1    
   106   53  116 1    
   107   54   55 am   BACKBONE|DICT|INTERRES
   108   54  117 1    
   109   55   56 2    
   110   55   57 1    
   111   57   58 1    
   112   57   59 1    
   113   57  118 1    
   114   58  119 1    
   115   58  120 1    
   116   58  121 1    
   117   59   60 am   BACKBONE|DICT|INTERRES
   118   59  122 1    
   119   60   61 2    
   120   60   62 1    
   121   62   63 1    
   122   62   64 1    
   123   62  123 1    
   124   63  124 1    
   125   63  125 1    
   126   63  126 1    
   127   64   65 am   BACKBONE|DICT|INTERRES
   128   64  127 1    
   129   65   66 2    
@<TRIPOS>SUBSTRUCTURE
     1 UNK         1 GROUP             0       ****    0 ROOT    
