@<TRIPOS>MOLECULE
3R135
127   129    1
SMALL
USER_CHARGES


@<TRIPOS>ATOM
      1 CA        -84.4136   24.3754  -72.7737 C.3       0 UNK        -0.1998 
      2 C         -83.3608   23.2989  -72.5218 C.2       0 UNK         0.4909 
      3 O         -83.6460   22.1231  -72.7391 O.2       0 UNK        -0.5240 
      4 N         -82.1450   23.6246  -72.0595 N.am      1 UNK        -0.4739 
      5 CA        -81.5784   24.9594  -71.8457 C.3       1 UNK         0.0864 
      6 C6        -80.3938   24.8780  -70.8453 C.3       11 UNK        -0.0881 
      7 S7        -79.6363   26.4959  -70.4619 S.3       11 UNK        -0.2682 
      8 C8        -78.0335   26.3301  -71.3132 C.3       11 UNK         0.0289 
      9 C9        -77.4585   27.6882  -71.6751 C.ar      11 UNK        -0.0687 
     10 C10       -77.9618   28.3845  -72.7779 C.ar      11 UNK        -0.0823 
     11 C11       -77.4291   29.6265  -73.1357 C.ar      11 UNK        -0.0830 
     12 C12       -76.3781   30.1649  -72.3867 C.ar      11 UNK        -0.1021 
     13 C13       -75.8734   29.4811  -71.2763 C.ar      11 UNK        -0.0753 
     14 C14       -76.4204   28.2440  -70.9223 C.ar      11 UNK        -0.0933 
     15 C15       -74.7418   30.0801  -70.4559 C.3       11 UNK         0.0166 
     16 S16       -73.1703   29.2392  -70.8131 S.3       11 UNK        -0.2615 
     17 C17       -72.0106   30.6431  -70.9252 C.3       11 UNK        -0.0865 
     18 CA        -71.9379   31.2633  -72.3466 C.3       10 UNK         0.0862 
     19 C         -70.9611   32.4756  -72.3630 C.2       10 UNK         0.5551 
     20 N         -69.8466   32.4244  -73.0823 N.am      10 UNK        -0.7319 
     21 O         -71.2238   33.4820  -71.7092 O.2       10 UNK        -0.5018 
     22 N         -71.6886   30.2421  -73.3781 N.am      10 UNK        -0.4509 
     23 C         -71.8817   30.3951  -74.6922 C.2       10 UNK         0.4899 
     24 O         -72.2657   31.4444  -75.2092 O.2       10 UNK        -0.4839 
     25 CA        -71.6161   29.1736  -75.5904 C.3       9 UNK         0.0222 
     26 CB        -70.1122   29.0026  -75.8803 C.3       9 UNK        -0.1966 
     27 N         -72.2279   27.9244  -75.1156 N.am      9 UNK        -0.4218 
     28 C         -71.9296   27.1890  -74.0332 C.2       9 UNK         0.5020 
     29 O         -71.0407   27.4747  -73.2292 O.2       9 UNK        -0.5274 
     30 CA        -72.7663   25.9178  -73.8038 C.3       8 UNK         0.0270 
     31 CB        -74.0704   26.2511  -73.0598 C.3       8 UNK        -0.1976 
     32 N         -73.0834   25.1984  -75.0399 N.am      8 UNK        -0.4313 
     33 C         -72.1875   24.5771  -75.8209 C.2       8 UNK         0.5041 
     34 O         -70.9788   24.5400  -75.5874 O.2       8 UNK        -0.5577 
     35 CA        -72.7311   23.8728  -77.0733 C.3       7 UNK         0.0284 
     36 CB        -73.3177   22.4966  -76.7152 C.3       7 UNK        -0.1958 
     37 N         -73.7507   24.6850  -77.7377 N.am      7 UNK        -0.4454 
     38 C         -73.4898   25.6126  -78.6692 C.2       7 UNK         0.5089 
     39 O         -72.3676   25.8255  -79.1291 O.2       7 UNK        -0.5125 
     40 CA        -74.6775   26.4534  -79.1784 C.3       6 UNK         0.0408 
     41 CB        -75.2582   25.8372  -80.4608 C.3       6 UNK        -0.1791 
     42 N         -75.7523   26.6234  -78.1955 N.am      6 UNK        -0.4762 
     43 C         -75.6241   27.2730  -77.0287 C.2       6 UNK         0.5007 
     44 O         -74.5793   27.8082  -76.6608 O.2       6 UNK        -0.5032 
     45 CA        -76.8427   27.2523  -76.0805 C.3       5 UNK         0.0783 
     46 C46       -77.7984   28.4395  -76.3474 C.3       11 UNK        -0.0857 
     47 S47       -77.1079   30.0571  -75.8582 S.3       11 UNK        -0.2512 
     48 C48       -78.0021   30.4041  -74.3116 C.3       11 UNK         0.0225 
     49 N         -77.5596   25.9672  -76.0969 N.am      5 UNK        -0.4615 
     50 C         -77.0063   24.7762  -75.8151 C.2       4 UNK         0.5053 
     51 O         -75.8114   24.6420  -75.5504 O.2       4 UNK        -0.5105 
     52 CA        -77.8948   23.5206  -75.8427 C.3       4 UNK         0.0263 
     53 CB        -77.7839   22.7535  -74.5132 C.3       4 UNK        -0.1981 
     54 N         -79.3022   23.8342  -76.0893 N.am      4 UNK        -0.4224 
     55 C         -79.9366   23.7024  -77.2626 C.2       3 UNK         0.4895 
     56 O         -79.3992   23.2766  -78.2853 O.2       3 UNK        -0.5091 
     57 CA        -81.4212   24.1209  -77.3185 C.3       3 UNK         0.0250 
     58 CB        -82.3285   22.8882  -77.1739 C.3       3 UNK        -0.1996 
     59 N         -81.8040   25.1140  -76.3093 N.am      3 UNK        -0.4254 
     60 C         -81.3128   26.3585  -76.2343 C.2       2 UNK         0.5004 
     61 O         -80.5245   26.8267  -77.0547 O.2       2 UNK        -0.5226 
     62 CA        -81.7122   27.2048  -75.0091 C.3       2 UNK         0.0269 
     63 CB        -82.9392   28.0691  -75.3392 C.3       2 UNK        -0.1926 
     64 N         -81.9673   26.4594  -73.7653 N.am      2 UNK        -0.4687 
     65 C         -81.1579   25.5443  -73.2088 C.2       1 UNK         0.5165 
     66 O         -80.1273   25.1349  -73.7420 O.2       1 UNK        -0.5079 
     67 H67       -85.4059   23.9253  -72.8001 H         1 UNK         0.0900 
     68 H68       -84.2505   24.8592  -73.7353 H         1 UNK         0.0900 
     69 H69       -84.4297   25.1292  -71.9884 H         1 UNK         0.0900 
     70 H70       -81.4879   22.8697  -71.9226 H         1 UNK         0.2959 
     71 H71       -82.3291   25.6117  -71.3976 H         1 UNK         0.1079 
     72 H72       -80.7460   24.4562  -69.9025 H         1 UNK         0.0837 
     73 H73       -79.6287   24.1871  -71.2051 H         1 UNK         0.0837 
     74 H74       -77.3452   25.7742  -70.6747 H         1 UNK         0.0685 
     75 H75       -78.1399   25.7434  -72.2257 H         1 UNK         0.0685 
     76 H76       -78.7723   27.9558  -73.3507 H         1 UNK         0.1434 
     77 H77       -75.9581   31.1220  -72.6650 H         1 UNK         0.1329 
     78 H78       -76.0277   27.7110  -70.0672 H         1 UNK         0.1335 
     79 H79       -74.6548   31.1480  -70.6617 H         1 UNK         0.0680 
     80 H80       -74.9642   29.9894  -69.3917 H         1 UNK         0.0680 
     81 H81       -72.2902   31.3954  -70.1849 H         1 UNK         0.1032 
     82 H82       -71.0250   30.2822  -70.6251 H         1 UNK         0.1032 
     83 H83       -72.9233   31.6804  -72.5632 H         1 UNK         0.0461 
     84 H84       -69.6288   31.6023  -73.6217 H         1 UNK         0.3453 
     85 H85       -69.2224   33.2157  -73.0880 H         1 UNK         0.3453 
     86 H86       -71.3853   29.3285  -73.0509 H         1 UNK         0.2984 
     87 H87       -72.1050   29.3795  -76.5441 H         1 UNK         0.0554 
     88 H88       -69.9352   28.1797  -76.5730 H         1 UNK         0.0847 
     89 H89       -69.5380   28.8064  -74.9746 H         1 UNK         0.0847 
     90 H90       -69.7000   29.9041  -76.3353 H         1 UNK         0.0847 
     91 H91       -73.0381   27.6386  -75.6635 H         1 UNK         0.3141 
     92 H92       -72.1806   25.2440  -73.1751 H         1 UNK         0.0743 
     93 H93       -73.8580   26.6475  -72.0671 H         1 UNK         0.0784 
     94 H94       -74.6589   27.0020  -73.5872 H         1 UNK         0.0784 
     95 H95       -74.6950   25.3677  -72.9256 H         1 UNK         0.0784 
     96 H96       -74.0703   25.1131  -75.2767 H         1 UNK         0.3213 
     97 H97       -71.8941   23.7104  -77.7563 H         1 UNK         0.0855 
     98 H98       -74.1564   22.5751  -76.0227 H         1 UNK         0.0814 
     99 H99       -72.5643   21.8657  -76.2417 H         1 UNK         0.0814 
    100 H100      -73.6662   21.9717  -77.6047 H         1 UNK         0.0814 
    101 H101      -74.6926   24.6157  -77.3740 H         1 UNK         0.3105 
    102 H102      -74.2929   27.4461  -79.4219 H         1 UNK         0.0547 
    103 H103      -76.0385   26.4676  -80.8875 H         1 UNK         0.0837 
    104 H104      -74.4857   25.7223  -81.2226 H         1 UNK         0.0837 
    105 H105      -75.6843   24.8498  -80.2785 H         1 UNK         0.0837 
    106 H106      -76.6425   26.1976  -78.4116 H         1 UNK         0.3020 
    107 H107      -76.4495   27.3634  -75.0684 H         1 UNK         0.1245 
    108 H108      -78.7287   28.2936  -75.8010 H         1 UNK         0.0781 
    109 H109      -78.0833   28.4817  -77.4005 H         1 UNK         0.0781 
    110 H110      -77.9354   31.4737  -74.1068 H         1 UNK         0.0836 
    111 H111      -79.0653   30.1924  -74.4350 H         1 UNK         0.0836 
    112 H112      -78.5422   26.0029  -76.3366 H         1 UNK         0.3022 
    113 H113      -77.5105   22.8760  -76.6356 H         1 UNK         0.0747 
    114 H114      -78.4015   21.8554  -74.5213 H         1 UNK         0.0793 
    115 H115      -78.0937   23.3658  -73.6655 H         1 UNK         0.0793 
    116 H116      -76.7568   22.4365  -74.3269 H         1 UNK         0.0793 
    117 H117      -79.7996   24.2353  -75.2957 H         1 UNK         0.3047 
    118 H118      -81.5955   24.5632  -78.3018 H         1 UNK         0.0822 
    119 H119      -82.0886   22.1360  -77.9270 H         1 UNK         0.0807 
    120 H120      -83.3788   23.1497  -77.3044 H         1 UNK         0.0807 
    121 H121      -82.2174   22.4173  -76.1961 H         1 UNK         0.0807 
    122 H122      -82.4386   24.8084  -75.5873 H         1 UNK         0.2946 
    123 H123      -80.8754   27.8751  -74.8066 H         1 UNK         0.1144 
    124 H124      -82.7742   28.6533  -76.2459 H         1 UNK         0.0793 
    125 H125      -83.1554   28.7765  -74.5383 H         1 UNK         0.0793 
    126 H126      -83.8299   27.4607  -75.5012 H         1 UNK         0.0793 
    127 H127      -82.7936   26.7387  -73.2566 H         1 UNK         0.2896 
@<TRIPOS>BOND
     1    1    2 1    
     2    1   67 1    
     3    1   68 1    
     4    1   69 1    
     5    2    3 2    
     6    2    4 am   BACKBONE|DICT|INTERRES
     7    4    5 1    
     8    4   70 1    
     9    5    6 1    
    10    5   65 1    
    11    5   71 1    
    12    6    7 1    
    13    6   72 1    
    14    6   73 1    
    15    7    8 1    
    16    8    9 1    
    17    8   74 1    
    18    8   75 1    
    19    9   10 ar   
    20    9   14 ar   
    21   10   11 ar   
    22   10   76 1    
    23   11   12 ar   
    24   11   48 1    
    25   12   13 ar   
    26   12   77 1    
    27   13   14 ar   
    28   13   15 1    
    29   14   78 1    
    30   15   16 1    
    31   15   79 1    
    32   15   80 1    
    33   16   17 1    
    34   17   18 1    
    35   17   81 1    
    36   17   82 1    
    37   18   19 1    
    38   18   22 1    
    39   18   83 1    
    40   19   20 am   BACKBONE|DICT|INTERRES
    41   19   21 2    
    42   20   84 1    
    43   20   85 1    
    44   22   23 am   BACKBONE|DICT|INTERRES
    45   22   86 1    
    46   23   24 2    
    47   23   25 1    
    48   25   26 1    
    49   25   27 1    
    50   25   87 1    
    51   26   88 1    
    52   26   89 1    
    53   26   90 1    
    54   27   28 am   BACKBONE|DICT|INTERRES
    55   27   91 1    
    56   28   29 2    
    57   28   30 1    
    58   30   31 1    
    59   30   32 1    
    60   30   92 1    
    61   31   93 1    
    62   31   94 1    
    63   31   95 1    
    64   32   33 am   BACKBONE|DICT|INTERRES
    65   32   96 1    
    66   33   34 2    
    67   33   35 1    
    68   35   36 1    
    69   35   37 1    
    70   35   97 1    
    71   36   98 1    
    72   36   99 1    
    73   36  100 1    
    74   37   38 am   BACKBONE|DICT|INTERRES
    75   37  101 1    
    76   38   39 2    
    77   38   40 1    
    78   40   41 1    
    79   40   42 1    
    80   40  102 1    
    81   41  103 1    
    82   41  104 1    
    83   41  105 1    
    84   42   43 am   BACKBONE|DICT|INTERRES
    85   42  106 1    
    86   43   44 2    
    87   43   45 1    
    88   45   46 1    
    89   45   49 1    
    90   45  107 1    
    91   46   47 1    
    92   46  108 1    
    93   46  109 1    
    94   47   48 1    
    95   48  110 1    
    96   48  111 1    
    97   49   50 am   BACKBONE|DICT|INTERRES
    98   49  112 1    
    99   50   51 2    
   100   50   52 1    
   101   52   53 1    
   102   52   54 1    
   103   52  113 1    
   104   53  114 1    
   105   53  115 1    
   106   53  116 1    
   107   54   55 am   BACKBONE|DICT|INTERRES
   108   54  117 1    
   109   55   56 2    
   110   55   57 1    
   111   57   58 1    
   112   57   59 1    
   113   57  118 1    
   114   58  119 1    
   115   58  120 1    
   116   58  121 1    
   117   59   60 am   BACKBONE|DICT|INTERRES
   118   59  122 1    
   119   60   61 2    
   120   60   62 1    
   121   62   63 1    
   122   62   64 1    
   123   62  123 1    
   124   63  124 1    
   125   63  125 1    
   126   63  126 1    
   127   64   65 am   BACKBONE|DICT|INTERRES
   128   64  127 1    
   129   65   66 2    
@<TRIPOS>SUBSTRUCTURE
     1 UNK         1 GROUP             0       ****    0 ROOT    
