@<TRIPOS>MOLECULE
3R135
127   129    1
SMALL
USER_CHARGES


@<TRIPOS>ATOM
      1 CA        -77.3627   23.1539  -76.2376 C.3       0 UNK        -0.1998 
      2 C         -78.5091   22.9506  -75.2573 C.2       0 UNK         0.4909 
      3 O         -79.3641   22.0925  -75.4798 O.2       0 UNK        -0.5240 
      4 N         -78.5361   23.7458  -74.1811 N.am      1 UNK        -0.4739 
      5 CA        -79.5502   23.7519  -73.1232 C.3       1 UNK         0.0864 
      6 C6        -79.1697   24.7218  -71.9795 C.3       11 UNK        -0.0881 
      7 S7        -77.6417   24.2151  -71.1274 S.3       11 UNK        -0.2682 
      8 C8        -77.5555   25.4613  -69.8059 C.3       11 UNK         0.0289 
      9 C9        -77.1928   26.8374  -70.3448 C.ar      11 UNK        -0.0687 
     10 C10       -78.1874   27.7925  -70.5778 C.ar      11 UNK        -0.0823 
     11 C11       -77.8525   29.0662  -71.0467 C.ar      11 UNK        -0.0830 
     12 C12       -76.5086   29.3842  -71.2724 C.ar      11 UNK        -0.1021 
     13 C13       -75.5067   28.4349  -71.0497 C.ar      11 UNK        -0.0753 
     14 C14       -75.8555   27.1626  -70.5882 C.ar      11 UNK        -0.0933 
     15 C15       -74.0462   28.7893  -71.2822 C.3       11 UNK         0.0166 
     16 S16       -73.6450   28.8215  -73.0552 S.3       11 UNK        -0.2615 
     17 C17       -73.2648   30.5936  -73.2988 C.3       11 UNK        -0.0865 
     18 CA        -72.7514   30.9278  -74.7266 C.3       10 UNK         0.0862 
     19 C         -72.4372   32.4446  -74.8754 C.2       10 UNK         0.5551 
     20 N         -71.2245   32.8405  -75.2424 N.am      10 UNK        -0.7319 
     21 O         -73.3121   33.2786  -74.6564 O.2       10 UNK        -0.5018 
     22 N         -71.6572   30.0302  -75.1244 N.am      10 UNK        -0.4509 
     23 C         -71.3371   29.6786  -76.3730 C.2       10 UNK         0.4899 
     24 O         -71.8651   30.1565  -77.3764 O.2       10 UNK        -0.4839 
     25 CA        -70.2836   28.5658  -76.5375 C.3       9 UNK         0.0222 
     26 CB        -68.8613   29.1508  -76.6383 C.3       9 UNK        -0.1966 
     27 N         -70.3744   27.4979  -75.5256 N.am      9 UNK        -0.4218 
     28 C         -70.1060   27.5556  -74.2110 C.2       9 UNK         0.5020 
     29 O         -69.6795   28.5618  -73.6423 O.2       9 UNK        -0.5274 
     30 CA        -70.4710   26.3084  -73.3935 C.3       8 UNK         0.0270 
     31 CB        -70.2915   26.5069  -71.8761 C.3       8 UNK        -0.1976 
     32 N         -71.8653   25.9720  -73.6717 N.am      8 UNK        -0.4313 
     33 C         -72.3158   24.7765  -74.0653 C.2       8 UNK         0.5041 
     34 O         -71.6095   23.7726  -74.1652 O.2       8 UNK        -0.5577 
     35 CA        -73.8079   24.6884  -74.4328 C.3       7 UNK         0.0284 
     36 CB        -74.6322   24.2491  -73.2132 C.3       7 UNK        -0.1958 
     37 N         -74.3678   25.9341  -74.9719 N.am      7 UNK        -0.4454 
     38 C         -73.9963   26.5176  -76.1224 C.2       7 UNK         0.5089 
     39 O         -73.0931   26.0865  -76.8401 O.2       7 UNK        -0.5125 
     40 CA        -74.7526   27.7916  -76.5387 C.3       6 UNK         0.0408 
     41 CB        -74.9542   27.8849  -78.0623 C.3       6 UNK        -0.1791 
     42 N         -76.0471   27.8966  -75.8644 N.am      6 UNK        -0.4762 
     43 C         -76.6225   29.0287  -75.4426 C.2       6 UNK         0.5007 
     44 O         -76.1337   30.1473  -75.6055 O.2       6 UNK        -0.5032 
     45 CA        -78.0039   28.8749  -74.7686 C.3       5 UNK         0.0783 
     46 C46       -78.4679   30.1775  -74.0678 C.3       11 UNK        -0.0857 
     47 S47       -79.8043   29.8486  -72.8725 S.3       11 UNK        -0.2512 
     48 C48       -78.9429   30.1030  -71.2855 C.3       11 UNK         0.0225 
     49 N         -78.9908   28.4163  -75.7541 N.am      5 UNK        -0.4615 
     50 C         -79.0828   27.1700  -76.2290 C.2       4 UNK         0.5053 
     51 O         -78.3926   26.2327  -75.8218 O.2       4 UNK        -0.5105 
     52 CA        -80.0156   26.9621  -77.4253 C.3       4 UNK         0.0263 
     53 CB        -79.2427   27.2818  -78.7238 C.3       4 UNK        -0.1981 
     54 N         -80.4950   25.5805  -77.4235 N.am      4 UNK        -0.4224 
     55 C         -81.3907   25.0536  -78.2700 C.2       3 UNK         0.4895 
     56 O         -81.9432   25.6857  -79.1711 O.2       3 UNK        -0.5091 
     57 CA        -81.7478   23.5704  -78.0757 C.3       3 UNK         0.0250 
     58 CB        -80.6685   22.6571  -78.6788 C.3       3 UNK        -0.1996 
     59 N         -81.9664   23.2299  -76.6686 N.am      3 UNK        -0.4254 
     60 C         -83.0638   23.5828  -75.9801 C.2       2 UNK         0.5004 
     61 O         -84.0229   24.1731  -76.4788 O.2       2 UNK        -0.5226 
     62 CA        -83.1131   23.2222  -74.4840 C.3       2 UNK         0.0269 
     63 CB        -83.8976   21.9174  -74.2698 C.3       2 UNK        -0.1926 
     64 N         -81.7900   23.0951  -73.8688 N.am      2 UNK        -0.4687 
     65 C         -80.9326   24.1103  -73.6998 C.2       1 UNK         0.5165 
     66 O         -81.1847   25.2770  -74.0067 O.2       1 UNK        -0.5079 
     67 H67       -76.9175   22.1956  -76.5028 H         1 UNK         0.0900 
     68 H68       -76.5803   23.7864  -75.8198 H         1 UNK         0.0900 
     69 H69       -77.7241   23.6297  -77.1482 H         1 UNK         0.0900 
     70 H70       -77.8526   24.4851  -74.1109 H         1 UNK         0.2959 
     71 H71       -79.6017   22.7428  -72.7085 H         1 UNK         0.1079 
     72 H72       -79.0397   25.7343  -72.3674 H         1 UNK         0.0837 
     73 H73       -79.9692   24.7732  -71.2376 H         1 UNK         0.0837 
     74 H74       -78.5049   25.4934  -69.2692 H         1 UNK         0.0685 
     75 H75       -76.8065   25.1474  -69.0773 H         1 UNK         0.0685 
     76 H76       -79.2243   27.5461  -70.3933 H         1 UNK         0.1434 
     77 H77       -76.2369   30.3704  -71.6225 H         1 UNK         0.1329 
     78 H78       -75.0858   26.4252  -70.4061 H         1 UNK         0.1335 
     79 H79       -73.3941   28.0643  -70.7926 H         1 UNK         0.0680 
     80 H80       -73.8270   29.7522  -70.8189 H         1 UNK         0.0680 
     81 H81       -72.5223   30.8922  -72.5562 H         1 UNK         0.1032 
     82 H82       -74.1681   31.1667  -73.0809 H         1 UNK         0.1032 
     83 H83       -73.5772   30.7448  -75.4139 H         1 UNK         0.0461 
     84 H84       -70.5048   32.1605  -75.4273 H         1 UNK         0.3453 
     85 H85       -71.0308   33.8249  -75.3388 H         1 UNK         0.3453 
     86 H86       -71.1186   29.6154  -74.3702 H         1 UNK         0.2984 
     87 H87       -70.5010   28.0762  -77.4883 H         1 UNK         0.0554 
     88 H88       -68.1215   28.3684  -76.8067 H         1 UNK         0.0847 
     89 H89       -68.5747   29.6955  -75.7384 H         1 UNK         0.0847 
     90 H90       -68.7890   29.8495  -77.4728 H         1 UNK         0.0847 
     91 H91       -70.7863   26.6381  -75.8667 H         1 UNK         0.3141 
     92 H92       -69.8045   25.5075  -73.7202 H         1 UNK         0.0743 
     93 H93       -70.9164   27.3175  -71.4987 H         1 UNK         0.0784 
     94 H94       -70.5499   25.6017  -71.3265 H         1 UNK         0.0784 
     95 H95       -69.2563   26.7498  -71.6330 H         1 UNK         0.0784 
     96 H96       -72.5223   26.7419  -73.6302 H         1 UNK         0.3213 
     97 H97       -73.9046   23.9224  -75.2053 H         1 UNK         0.0855 
     98 H98       -74.6151   24.9986  -72.4214 H         1 UNK         0.0814 
     99 H99       -74.2435   23.3214  -72.7909 H         1 UNK         0.0814 
    100 H100      -75.6719   24.0662  -73.4800 H         1 UNK         0.0814 
    101 H101      -75.0724   26.3958  -74.4154 H         1 UNK         0.3105 
    102 H102      -74.1221   28.6237  -76.2270 H         1 UNK         0.0547 
    103 H103      -73.9982   27.8680  -78.5874 H         1 UNK         0.0837 
    104 H104      -75.5531   27.0551  -78.4392 H         1 UNK         0.0837 
    105 H105      -75.4537   28.8132  -78.3393 H         1 UNK         0.0837 
    106 H106      -76.5904   27.0406  -75.7854 H         1 UNK         0.3020 
    107 H107      -77.8870   28.1057  -74.0004 H         1 UNK         0.1245 
    108 H108      -77.6434   30.6628  -73.5439 H         1 UNK         0.0781 
    109 H109      -78.8187   30.9079  -74.7989 H         1 UNK         0.0781 
    110 H110      -78.5297   31.1125  -71.2538 H         1 UNK         0.0836 
    111 H111      -79.6743   30.0530  -70.4774 H         1 UNK         0.0836 
    112 H112      -79.5695   29.1361  -76.1617 H         1 UNK         0.3022 
    113 H113      -80.8748   27.6286  -77.3275 H         1 UNK         0.0747 
    114 H114      -79.8871   27.2501  -79.6016 H         1 UNK         0.0793 
    115 H115      -78.8090   28.2823  -78.6893 H         1 UNK         0.0793 
    116 H116      -78.4237   26.5793  -78.8844 H         1 UNK         0.0793 
    117 H117      -80.1079   25.0116  -76.6816 H         1 UNK         0.3047 
    118 H118      -82.6771   23.3824  -78.6187 H         1 UNK         0.0822 
    119 H119      -80.9509   21.6070  -78.6022 H         1 UNK         0.0807 
    120 H120      -79.7060   22.7800  -78.1844 H         1 UNK         0.0807 
    121 H121      -80.5207   22.8764  -79.7371 H         1 UNK         0.0807 
    122 H122      -81.2175   22.7435  -76.1855 H         1 UNK         0.2946 
    123 H123      -83.6442   24.0308  -73.9762 H         1 UNK         0.1144 
    124 H124      -84.0138   21.6929  -73.2093 H         1 UNK         0.0793 
    125 H125      -83.4043   21.0671  -74.7426 H         1 UNK         0.0793 
    126 H126      -84.8997   21.9904  -74.6950 H         1 UNK         0.0793 
    127 H127      -81.4884   22.1596  -73.6339 H         1 UNK         0.2896 
@<TRIPOS>BOND
     1    1    2 1    
     2    1   67 1    
     3    1   68 1    
     4    1   69 1    
     5    2    3 2    
     6    2    4 am   BACKBONE|DICT|INTERRES
     7    4    5 1    
     8    4   70 1    
     9    5    6 1    
    10    5   65 1    
    11    5   71 1    
    12    6    7 1    
    13    6   72 1    
    14    6   73 1    
    15    7    8 1    
    16    8    9 1    
    17    8   74 1    
    18    8   75 1    
    19    9   10 ar   
    20    9   14 ar   
    21   10   11 ar   
    22   10   76 1    
    23   11   12 ar   
    24   11   48 1    
    25   12   13 ar   
    26   12   77 1    
    27   13   14 ar   
    28   13   15 1    
    29   14   78 1    
    30   15   16 1    
    31   15   79 1    
    32   15   80 1    
    33   16   17 1    
    34   17   18 1    
    35   17   81 1    
    36   17   82 1    
    37   18   19 1    
    38   18   22 1    
    39   18   83 1    
    40   19   20 am   BACKBONE|DICT|INTERRES
    41   19   21 2    
    42   20   84 1    
    43   20   85 1    
    44   22   23 am   BACKBONE|DICT|INTERRES
    45   22   86 1    
    46   23   24 2    
    47   23   25 1    
    48   25   26 1    
    49   25   27 1    
    50   25   87 1    
    51   26   88 1    
    52   26   89 1    
    53   26   90 1    
    54   27   28 am   BACKBONE|DICT|INTERRES
    55   27   91 1    
    56   28   29 2    
    57   28   30 1    
    58   30   31 1    
    59   30   32 1    
    60   30   92 1    
    61   31   93 1    
    62   31   94 1    
    63   31   95 1    
    64   32   33 am   BACKBONE|DICT|INTERRES
    65   32   96 1    
    66   33   34 2    
    67   33   35 1    
    68   35   36 1    
    69   35   37 1    
    70   35   97 1    
    71   36   98 1    
    72   36   99 1    
    73   36  100 1    
    74   37   38 am   BACKBONE|DICT|INTERRES
    75   37  101 1    
    76   38   39 2    
    77   38   40 1    
    78   40   41 1    
    79   40   42 1    
    80   40  102 1    
    81   41  103 1    
    82   41  104 1    
    83   41  105 1    
    84   42   43 am   BACKBONE|DICT|INTERRES
    85   42  106 1    
    86   43   44 2    
    87   43   45 1    
    88   45   46 1    
    89   45   49 1    
    90   45  107 1    
    91   46   47 1    
    92   46  108 1    
    93   46  109 1    
    94   47   48 1    
    95   48  110 1    
    96   48  111 1    
    97   49   50 am   BACKBONE|DICT|INTERRES
    98   49  112 1    
    99   50   51 2    
   100   50   52 1    
   101   52   53 1    
   102   52   54 1    
   103   52  113 1    
   104   53  114 1    
   105   53  115 1    
   106   53  116 1    
   107   54   55 am   BACKBONE|DICT|INTERRES
   108   54  117 1    
   109   55   56 2    
   110   55   57 1    
   111   57   58 1    
   112   57   59 1    
   113   57  118 1    
   114   58  119 1    
   115   58  120 1    
   116   58  121 1    
   117   59   60 am   BACKBONE|DICT|INTERRES
   118   59  122 1    
   119   60   61 2    
   120   60   62 1    
   121   62   63 1    
   122   62   64 1    
   123   62  123 1    
   124   63  124 1    
   125   63  125 1    
   126   63  126 1    
   127   64   65 am   BACKBONE|DICT|INTERRES
   128   64  127 1    
   129   65   66 2    
@<TRIPOS>SUBSTRUCTURE
     1 UNK         1 GROUP             0       ****    0 ROOT    
