@<TRIPOS>MOLECULE
3R135
127   129    1
SMALL
USER_CHARGES


@<TRIPOS>ATOM
      1 CA        -83.8912   27.3983  -69.2280 C.3       0 UNK        -0.1998 
      2 C         -83.7934   26.6463  -70.5468 C.2       0 UNK         0.4909 
      3 O         -84.6495   25.8115  -70.8408 O.2       0 UNK        -0.5240 
      4 N         -82.7565   26.9376  -71.3434 N.am      1 UNK        -0.4739 
      5 CA        -82.4976   26.3057  -72.6451 C.3       1 UNK         0.0864 
      6 C6        -81.4890   27.1180  -73.4951 C.3       11 UNK        -0.0881 
      7 S7        -82.1217   28.7701  -73.9436 S.3       11 UNK        -0.2682 
      8 C8        -81.3152   29.8521  -72.7195 C.3       11 UNK         0.0289 
      9 C9        -79.8269   30.0287  -72.9855 C.ar      11 UNK        -0.0687 
     10 C10       -79.3953   30.8826  -74.0056 C.ar      11 UNK        -0.0823 
     11 C11       -78.0306   31.0854  -74.2352 C.ar      11 UNK        -0.0830 
     12 C12       -77.0971   30.4346  -73.4237 C.ar      11 UNK        -0.1021 
     13 C13       -77.5152   29.5627  -72.4158 C.ar      11 UNK        -0.0753 
     14 C14       -78.8813   29.3654  -72.1965 C.ar      11 UNK        -0.0933 
     15 C15       -76.4798   28.8384  -71.5739 C.3       11 UNK         0.0166 
     16 S16       -75.7008   27.5040  -72.5295 S.3       11 UNK        -0.2615 
     17 C17       -74.2904   27.0989  -71.4458 C.3       11 UNK        -0.0865 
     18 CA        -73.0437   27.9996  -71.6728 C.3       10 UNK         0.0862 
     19 C         -71.8708   27.5066  -70.7742 C.2       10 UNK         0.5551 
     20 N         -70.8486   26.8516  -71.3148 N.am      10 UNK        -0.7319 
     21 O         -71.8966   27.7197  -69.5648 O.2       10 UNK        -0.5018 
     22 N         -72.7129   28.1176  -73.0994 N.am      10 UNK        -0.4509 
     23 C         -71.7791   28.9116  -73.6402 C.2       10 UNK         0.4899 
     24 O         -71.1746   29.7815  -73.0117 O.2       10 UNK        -0.4839 
     25 CA        -71.4575   28.6778  -75.1344 C.3       9 UNK         0.0222 
     26 CB        -69.9704   28.9295  -75.4606 C.3       9 UNK        -0.1966 
     27 N         -71.8837   27.3564  -75.6293 N.am      9 UNK        -0.4218 
     28 C         -71.4966   26.1600  -75.1534 C.2       9 UNK         0.5020 
     29 O         -70.6455   26.0158  -74.2735 O.2       9 UNK        -0.5274 
     30 CA        -72.2371   24.9173  -75.6632 C.3       8 UNK         0.0270 
     31 CB        -73.3694   24.5458  -74.6917 C.3       8 UNK        -0.1976 
     32 N         -72.7967   25.0691  -77.0061 N.am      8 UNK        -0.4313 
     33 C         -72.1047   24.8372  -78.1292 C.2       8 UNK         0.5041 
     34 O         -70.8988   24.5872  -78.1551 O.2       8 UNK        -0.5577 
     35 CA        -72.8975   24.8539  -79.4422 C.3       7 UNK         0.0284 
     36 CB        -73.8115   23.6211  -79.5404 C.3       7 UNK        -0.1958 
     37 N         -73.6958   26.0714  -79.5684 N.am      7 UNK        -0.4454 
     38 C         -73.2475   27.2065  -80.1200 C.2       7 UNK         0.5089 
     39 O         -72.1190   27.3399  -80.5949 O.2       7 UNK        -0.5125 
     40 CA        -74.2222   28.3967  -80.1733 C.3       6 UNK         0.0408 
     41 CB        -74.8795   28.4862  -81.5600 C.3       6 UNK        -0.1791 
     42 N         -75.2692   28.3657  -79.1483 N.am      6 UNK        -0.4762 
     43 C         -75.0502   28.5153  -77.8343 C.2       6 UNK         0.5007 
     44 O         -73.9305   28.6042  -77.3317 O.2       6 UNK        -0.5032 
     45 CA        -76.2988   28.5160  -76.9297 C.3       5 UNK         0.0783 
     46 C46       -77.1239   29.8191  -77.1051 C.3       11 UNK        -0.0857 
     47 S47       -76.2846   31.2903  -76.4211 S.3       11 UNK        -0.2512 
     48 C48       -77.5736   32.0177  -75.3520 C.3       11 UNK         0.0225 
     49 N         -77.1428   27.3291  -77.1186 N.am      5 UNK        -0.4615 
     50 C         -76.7459   26.0497  -77.0937 C.2       4 UNK         0.5053 
     51 O         -75.5722   25.6780  -77.0125 O.2       4 UNK        -0.5105 
     52 CA        -77.8565   24.9956  -77.1992 C.3       4 UNK         0.0263 
     53 CB        -77.7302   24.1868  -78.5001 C.3       4 UNK        -0.1981 
     54 N         -77.8106   24.0912  -76.0506 N.am      4 UNK        -0.4224 
     55 C         -78.2162   24.4267  -74.8198 C.2       3 UNK         0.4895 
     56 O         -78.7182   25.5169  -74.5331 O.2       3 UNK        -0.5091 
     57 CA        -78.0322   23.3700  -73.7251 C.3       3 UNK         0.0250 
     58 CB        -76.6200   23.4345  -73.1202 C.3       3 UNK        -0.1996 
     59 N         -79.0204   23.6275  -72.6848 N.am      3 UNK        -0.4254 
     60 C         -79.6965   22.7023  -71.9965 C.2       2 UNK         0.5004 
     61 O         -79.4810   21.4924  -72.0799 O.2       2 UNK        -0.5226 
     62 CA        -80.8113   23.2038  -71.0584 C.3       2 UNK         0.0269 
     63 CB        -80.3250   23.2077  -69.5998 C.3       2 UNK        -0.1926 
     64 N         -81.3267   24.5376  -71.3924 N.am      2 UNK        -0.4687 
     65 C         -82.0252   24.8436  -72.4977 C.2       1 UNK         0.5165 
     66 O         -82.3051   24.0252  -73.3745 O.2       1 UNK        -0.5079 
     67 H67       -83.8601   26.6979  -68.3938 H         1 UNK         0.0900 
     68 H68       -84.8317   27.9463  -69.1780 H         1 UNK         0.0900 
     69 H69       -83.0767   28.1116  -69.1027 H         1 UNK         0.0900 
     70 H70       -82.0933   27.6411  -71.0552 H         1 UNK         0.2959 
     71 H71       -83.4435   26.2700  -73.1910 H         1 UNK         0.1079 
     72 H72       -80.5272   27.2053  -72.9883 H         1 UNK         0.0837 
     73 H73       -81.2808   26.5975  -74.4324 H         1 UNK         0.0837 
     74 H74       -81.4862   29.4665  -71.7142 H         1 UNK         0.0685 
     75 H75       -81.7999   30.8291  -72.7500 H         1 UNK         0.0685 
     76 H76       -80.1281   31.3904  -74.6180 H         1 UNK         0.1434 
     77 H77       -76.0393   30.5869  -73.5903 H         1 UNK         0.1329 
     78 H78       -79.2065   28.6989  -71.4099 H         1 UNK         0.1335 
     79 H79       -76.9298   28.4231  -70.6708 H         1 UNK         0.0680 
     80 H80       -75.7206   29.5505  -71.2475 H         1 UNK         0.0680 
     81 H81       -74.6160   27.1503  -70.4048 H         1 UNK         0.1032 
     82 H82       -74.0366   26.0523  -71.6260 H         1 UNK         0.1032 
     83 H83       -73.2915   29.0058  -71.3306 H         1 UNK         0.0461 
     84 H84       -70.0958   26.5383  -70.7232 H         1 UNK         0.3453 
     85 H85       -70.8193   26.6626  -72.3106 H         1 UNK         0.3453 
     86 H86       -73.1806   27.4618  -73.7054 H         1 UNK         0.2984 
     87 H87       -72.0422   29.4159  -75.6837 H         1 UNK         0.0554 
     88 H88       -69.7642   28.7680  -76.5186 H         1 UNK         0.0847 
     89 H89       -69.3126   28.2761  -74.8866 H         1 UNK         0.0847 
     90 H90       -69.6868   29.9571  -75.2305 H         1 UNK         0.0847 
     91 H91       -72.6080   27.3891  -76.3408 H         1 UNK         0.3141 
     92 H92       -71.5208   24.0926  -75.6687 H         1 UNK         0.0743 
     93 H93       -72.9905   24.4071  -73.6780 H         1 UNK         0.0784 
     94 H94       -74.1425   25.3146  -74.6508 H         1 UNK         0.0784 
     95 H95       -73.8424   23.6108  -74.9904 H         1 UNK         0.0784 
     96 H96       -73.7935   25.2768  -77.0654 H         1 UNK         0.3213 
     97 H97       -72.1838   24.8009  -80.2678 H         1 UNK         0.0855 
     98 H98       -74.5172   23.5714  -78.7116 H         1 UNK         0.0814 
     99 H99       -73.2244   22.7020  -79.5194 H         1 UNK         0.0814 
    100 H100      -74.3813   23.6202  -80.4697 H         1 UNK         0.0814 
    101 H101      -74.6163   26.0690  -79.1513 H         1 UNK         0.3105 
    102 H102      -73.6337   29.3036  -80.0186 H         1 UNK         0.0547 
    103 H103      -75.5026   27.6158  -81.7693 H         1 UNK         0.0837 
    104 H104      -75.5021   29.3765  -81.6490 H         1 UNK         0.0837 
    105 H105      -74.1253   28.5424  -82.3464 H         1 UNK         0.0837 
    106 H106      -76.2214   28.2662  -79.4704 H         1 UNK         0.3020 
    107 H107      -75.9462   28.4719  -75.8961 H         1 UNK         0.1245 
    108 H108      -78.0889   29.7095  -76.6086 H         1 UNK         0.0781 
    109 H109      -77.3582   30.0057  -78.1547 H         1 UNK         0.0781 
    110 H110      -77.1836   32.9331  -74.9054 H         1 UNK         0.0836 
    111 H111      -78.4159   32.3156  -75.9784 H         1 UNK         0.0836 
    112 H112      -78.1335   27.5100  -77.1868 H         1 UNK         0.3022 
    113 H113      -78.8274   25.4964  -77.2079 H         1 UNK         0.0747 
    114 H114      -77.7126   24.8433  -79.3711 H         1 UNK         0.0793 
    115 H115      -78.5740   23.5079  -78.6248 H         1 UNK         0.0793 
    116 H116      -76.8192   23.5899  -78.5211 H         1 UNK         0.0793 
    117 H117      -77.3713   23.1942  -76.1979 H         1 UNK         0.3047 
    118 H118      -78.2017   22.3831  -74.1617 H         1 UNK         0.0822 
    119 H119      -75.8678   23.1890  -73.8686 H         1 UNK         0.0807 
    120 H120      -76.5052   22.7235  -72.3020 H         1 UNK         0.0807 
    121 H121      -76.3903   24.4291  -72.7352 H         1 UNK         0.0807 
    122 H122      -79.2967   24.5976  -72.6063 H         1 UNK         0.2946 
    123 H123      -81.6392   22.4959  -71.1427 H         1 UNK         0.1144 
    124 H124      -79.5062   23.9124  -69.4491 H         1 UNK         0.0793 
    125 H125      -79.9635   22.2211  -69.3060 H         1 UNK         0.0793 
    126 H126      -81.1292   23.4726  -68.9131 H         1 UNK         0.0793 
    127 H127      -81.1600   25.2710  -70.7188 H         1 UNK         0.2896 
@<TRIPOS>BOND
     1    1    2 1    
     2    1   67 1    
     3    1   68 1    
     4    1   69 1    
     5    2    3 2    
     6    2    4 am   BACKBONE|DICT|INTERRES
     7    4    5 1    
     8    4   70 1    
     9    5    6 1    
    10    5   65 1    
    11    5   71 1    
    12    6    7 1    
    13    6   72 1    
    14    6   73 1    
    15    7    8 1    
    16    8    9 1    
    17    8   74 1    
    18    8   75 1    
    19    9   10 ar   
    20    9   14 ar   
    21   10   11 ar   
    22   10   76 1    
    23   11   12 ar   
    24   11   48 1    
    25   12   13 ar   
    26   12   77 1    
    27   13   14 ar   
    28   13   15 1    
    29   14   78 1    
    30   15   16 1    
    31   15   79 1    
    32   15   80 1    
    33   16   17 1    
    34   17   18 1    
    35   17   81 1    
    36   17   82 1    
    37   18   19 1    
    38   18   22 1    
    39   18   83 1    
    40   19   20 am   BACKBONE|DICT|INTERRES
    41   19   21 2    
    42   20   84 1    
    43   20   85 1    
    44   22   23 am   BACKBONE|DICT|INTERRES
    45   22   86 1    
    46   23   24 2    
    47   23   25 1    
    48   25   26 1    
    49   25   27 1    
    50   25   87 1    
    51   26   88 1    
    52   26   89 1    
    53   26   90 1    
    54   27   28 am   BACKBONE|DICT|INTERRES
    55   27   91 1    
    56   28   29 2    
    57   28   30 1    
    58   30   31 1    
    59   30   32 1    
    60   30   92 1    
    61   31   93 1    
    62   31   94 1    
    63   31   95 1    
    64   32   33 am   BACKBONE|DICT|INTERRES
    65   32   96 1    
    66   33   34 2    
    67   33   35 1    
    68   35   36 1    
    69   35   37 1    
    70   35   97 1    
    71   36   98 1    
    72   36   99 1    
    73   36  100 1    
    74   37   38 am   BACKBONE|DICT|INTERRES
    75   37  101 1    
    76   38   39 2    
    77   38   40 1    
    78   40   41 1    
    79   40   42 1    
    80   40  102 1    
    81   41  103 1    
    82   41  104 1    
    83   41  105 1    
    84   42   43 am   BACKBONE|DICT|INTERRES
    85   42  106 1    
    86   43   44 2    
    87   43   45 1    
    88   45   46 1    
    89   45   49 1    
    90   45  107 1    
    91   46   47 1    
    92   46  108 1    
    93   46  109 1    
    94   47   48 1    
    95   48  110 1    
    96   48  111 1    
    97   49   50 am   BACKBONE|DICT|INTERRES
    98   49  112 1    
    99   50   51 2    
   100   50   52 1    
   101   52   53 1    
   102   52   54 1    
   103   52  113 1    
   104   53  114 1    
   105   53  115 1    
   106   53  116 1    
   107   54   55 am   BACKBONE|DICT|INTERRES
   108   54  117 1    
   109   55   56 2    
   110   55   57 1    
   111   57   58 1    
   112   57   59 1    
   113   57  118 1    
   114   58  119 1    
   115   58  120 1    
   116   58  121 1    
   117   59   60 am   BACKBONE|DICT|INTERRES
   118   59  122 1    
   119   60   61 2    
   120   60   62 1    
   121   62   63 1    
   122   62   64 1    
   123   62  123 1    
   124   63  124 1    
   125   63  125 1    
   126   63  126 1    
   127   64   65 am   BACKBONE|DICT|INTERRES
   128   64  127 1    
   129   65   66 2    
@<TRIPOS>SUBSTRUCTURE
     1 UNK         1 GROUP             0       ****    0 ROOT    
