@<TRIPOS>MOLECULE
3R135
127   129    1
SMALL
USER_CHARGES


@<TRIPOS>ATOM
      1 CA        -83.3914   23.6733  -72.3805 C.3       0 UNK        -0.1998 
      2 C         -82.5097   24.6659  -73.1219 C.2       0 UNK         0.4909 
      3 O         -81.6905   24.2548  -73.9440 O.2       0 UNK        -0.5240 
      4 N         -82.6799   25.9668  -72.8452 N.am      1 UNK        -0.4739 
      5 CA        -81.9251   27.0899  -73.4212 C.3       1 UNK         0.0864 
      6 C6        -80.4602   27.1622  -72.9019 C.3       11 UNK        -0.0881 
      7 S7        -80.3897   27.4025  -71.0922 S.3       11 UNK        -0.2682 
      8 C8        -79.4246   28.9444  -70.9382 C.3       11 UNK         0.0289 
      9 C9        -78.0021   28.7869  -71.4604 C.ar      11 UNK        -0.0687 
     10 C10       -77.1586   27.8136  -70.9163 C.ar      11 UNK        -0.0823 
     11 C11       -75.8821   27.6004  -71.4460 C.ar      11 UNK        -0.0830 
     12 C12       -75.4282   28.4188  -72.4837 C.ar      11 UNK        -0.1021 
     13 C13       -76.2390   29.4339  -72.9993 C.ar      11 UNK        -0.0753 
     14 C14       -77.5320   29.6026  -72.4949 C.ar      11 UNK        -0.0933 
     15 C15       -75.7260   30.3331  -74.1160 C.3       11 UNK         0.0166 
     16 S16       -75.2303   31.9783  -73.5105 S.3       11 UNK        -0.2615 
     17 C17       -73.7770   31.6054  -72.4663 C.3       11 UNK        -0.0865 
     18 CA        -72.4284   31.8885  -73.1765 C.3       10 UNK         0.0862 
     19 C         -71.2483   31.7383  -72.1795 C.2       10 UNK         0.5551 
     20 N         -70.6961   32.8420  -71.6952 N.am      10 UNK        -0.7319 
     21 O         -70.8679   30.6305  -71.8067 O.2       10 UNK        -0.5018 
     22 N         -72.2493   31.0329  -74.3573 N.am      10 UNK        -0.4509 
     23 C         -71.3326   31.2258  -75.3131 C.2       10 UNK         0.4899 
     24 O         -70.5660   32.1903  -75.3445 O.2       10 UNK        -0.4839 
     25 CA        -71.2883   30.1610  -76.4265 C.3       9 UNK         0.0222 
     26 CB        -70.0959   30.3377  -77.3911 C.3       9 UNK        -0.1966 
     27 N         -71.3462   28.7880  -75.9081 N.am      9 UNK        -0.4218 
     28 C         -70.4587   28.1837  -75.0979 C.2       9 UNK         0.5020 
     29 O         -69.4381   28.7256  -74.6718 O.2       9 UNK        -0.5274 
     30 CA        -70.7435   26.7251  -74.6801 C.3       8 UNK         0.0270 
     31 CB        -71.2537   26.6811  -73.2299 C.3       8 UNK        -0.1976 
     32 N         -71.7035   26.0329  -75.5450 N.am      8 UNK        -0.4313 
     33 C         -71.4869   25.7063  -76.8294 C.2       8 UNK         0.5041 
     34 O         -70.3966   25.8337  -77.3877 O.2       8 UNK        -0.5577 
     35 CA        -72.6880   25.1877  -77.6494 C.3       7 UNK         0.0284 
     36 CB        -72.6165   23.6592  -77.7973 C.3       7 UNK        -0.1958 
     37 N         -73.9977   25.5540  -77.0985 N.am      7 UNK        -0.4454 
     38 C         -74.4293   26.8011  -76.8627 C.2       7 UNK         0.5089 
     39 O         -73.8045   27.8125  -77.1831 O.2       7 UNK        -0.5125 
     40 CA        -75.7315   26.9552  -76.0582 C.3       6 UNK         0.0408 
     41 CB        -76.8987   27.3500  -76.9725 C.3       6 UNK        -0.1791 
     42 N         -76.1197   25.7997  -75.2400 N.am      6 UNK        -0.4762 
     43 C         -75.3880   25.2017  -74.2888 C.2       6 UNK         0.5007 
     44 O         -74.2077   25.4788  -74.0709 O.2       6 UNK        -0.5032 
     45 CA        -76.0743   24.0928  -73.4606 C.3       5 UNK         0.0783 
     46 C46       -76.8318   24.6865  -72.2411 C.3       11 UNK        -0.0857 
     47 S47       -75.8127   24.8629  -70.7341 S.3       11 UNK        -0.2512 
     48 C48       -74.9858   26.4852  -70.9172 C.3       11 UNK         0.0225 
     49 N         -76.9175   23.1815  -74.2550 N.am      5 UNK        -0.4615 
     50 C         -78.1113   23.4455  -74.8045 C.2       4 UNK         0.5053 
     51 O         -78.6099   24.5755  -74.8390 O.2       4 UNK        -0.5105 
     52 CA        -78.8639   22.2526  -75.4179 C.3       4 UNK         0.0263 
     53 CB        -79.0606   21.1077  -74.4058 C.3       4 UNK        -0.1981 
     54 N         -80.1696   22.7220  -75.8598 N.am      4 UNK        -0.4224 
     55 C         -80.8407   22.3403  -76.9514 C.2       3 UNK         0.4895 
     56 O         -80.4871   21.4272  -77.6981 O.2       3 UNK        -0.5091 
     57 CA        -82.1048   23.1525  -77.2819 C.3       3 UNK         0.0250 
     58 CB        -83.3269   22.6003  -76.5304 C.3       3 UNK        -0.1996 
     59 N         -81.8992   24.5624  -76.9356 N.am      3 UNK        -0.4254 
     60 C         -81.3025   25.4480  -77.7458 C.2       2 UNK         0.5004 
     61 O         -81.0769   25.2273  -78.9366 O.2       2 UNK        -0.5226 
     62 CA        -80.8049   26.7740  -77.1395 C.3       2 UNK         0.0269 
     63 CB        -81.3779   28.0056  -77.8723 C.3       2 UNK        -0.1926 
     64 N         -80.9435   26.8775  -75.6787 N.am      2 UNK        -0.4687 
     65 C         -82.0568   27.0968  -74.9621 C.2       1 UNK         0.5165 
     66 O         -83.1712   27.2674  -75.4589 O.2       1 UNK        -0.5079 
     67 H67       -84.0133   24.1612  -71.6304 H         1 UNK         0.0900 
     68 H68       -84.0453   23.1556  -73.0814 H         1 UNK         0.0900 
     69 H69       -82.7739   22.9299  -71.8771 H         1 UNK         0.0900 
     70 H70       -83.3903   26.2333  -72.1782 H         1 UNK         0.2959 
     71 H71       -82.4309   27.9986  -73.0904 H         1 UNK         0.1079 
     72 H72       -79.9234   27.9795  -73.3865 H         1 UNK         0.0837 
     73 H73       -79.9124   26.2485  -73.1392 H         1 UNK         0.0837 
     74 H74       -79.3855   29.2332  -69.8872 H         1 UNK         0.0685 
     75 H75       -79.9489   29.7462  -71.4604 H         1 UNK         0.0685 
     76 H76       -77.5184   27.1844  -70.1136 H         1 UNK         0.1434 
     77 H77       -74.4400   28.2632  -72.8937 H         1 UNK         0.1329 
     78 H78       -78.1695   30.3711  -72.9102 H         1 UNK         0.1335 
     79 H79       -74.8822   29.8741  -74.6315 H         1 UNK         0.0680 
     80 H80       -76.5078   30.4558  -74.8671 H         1 UNK         0.0680 
     81 H81       -73.8641   32.2282  -71.5738 H         1 UNK         0.1032 
     82 H82       -73.8151   30.5776  -72.1060 H         1 UNK         0.1032 
     83 H83       -72.4499   32.9231  -73.5262 H         1 UNK         0.0461 
     84 H84       -69.9403   32.7622  -71.0329 H         1 UNK         0.3453 
     85 H85       -71.0085   33.7540  -71.9910 H         1 UNK         0.3453 
     86 H86       -72.8127   30.1991  -74.3936 H         1 UNK         0.2984 
     87 H87       -72.1997   30.2982  -77.0104 H         1 UNK         0.0554 
     88 H88       -70.1284   31.3135  -77.8772 H         1 UNK         0.0847 
     89 H89       -70.1079   29.5838  -78.1782 H         1 UNK         0.0847 
     90 H90       -69.1393   30.2661  -76.8727 H         1 UNK         0.0847 
     91 H91       -72.1498   28.2521  -76.2248 H         1 UNK         0.3141 
     92 H92       -69.7977   26.1814  -74.7280 H         1 UNK         0.0743 
     93 H93       -70.5367   27.1414  -72.5484 H         1 UNK         0.0784 
     94 H94       -72.1963   27.2177  -73.1194 H         1 UNK         0.0784 
     95 H95       -71.4104   25.6562  -72.8930 H         1 UNK         0.0784 
     96 H96       -72.6209   25.8524  -75.1434 H         1 UNK         0.3213 
     97 H97       -72.6153   25.6351  -78.6429 H         1 UNK         0.0855 
     98 H98       -72.7098   23.1558  -76.8341 H         1 UNK         0.0814 
     99 H99       -71.6642   23.3536  -78.2334 H         1 UNK         0.0814 
    100 H100      -73.4040   23.2849  -78.4518 H         1 UNK         0.0814 
    101 H101      -74.5826   24.7962  -76.7779 H         1 UNK         0.3105 
    102 H102      -75.5627   27.7768  -75.3646 H         1 UNK         0.0547 
    103 H103      -76.6319   28.1939  -77.6105 H         1 UNK         0.0837 
    104 H104      -77.1973   26.5278  -77.6237 H         1 UNK         0.0837 
    105 H105      -77.7638   27.6562  -76.3851 H         1 UNK         0.0837 
    106 H106      -77.0875   25.4929  -75.3103 H         1 UNK         0.3020 
    107 H107      -75.2684   23.4612  -73.0821 H         1 UNK         0.1245 
    108 H108      -77.6387   24.0116  -71.9509 H         1 UNK         0.0781 
    109 H109      -77.3407   25.6168  -72.4957 H         1 UNK         0.0781 
    110 H110      -74.5918   26.7861  -69.9458 H         1 UNK         0.0836 
    111 H111      -74.1179   26.3519  -71.5639 H         1 UNK         0.0836 
    112 H112      -76.5683   22.2357  -74.3221 H         1 UNK         0.3022 
    113 H113      -78.2891   21.8967  -76.2753 H         1 UNK         0.0747 
    114 H114      -78.1089   20.6758  -74.0955 H         1 UNK         0.0793 
    115 H115      -79.6513   20.2988  -74.8362 H         1 UNK         0.0793 
    116 H116      -79.5753   21.4526  -73.5077 H         1 UNK         0.0793 
    117 H117      -80.5460   23.4794  -75.2918 H         1 UNK         0.3047 
    118 H118      -82.2979   23.0617  -78.3532 H         1 UNK         0.0822 
    119 H119      -84.2221   23.1837  -76.7459 H         1 UNK         0.0807 
    120 H120      -83.1774   22.6006  -75.4509 H         1 UNK         0.0807 
    121 H121      -83.5303   21.5708  -76.8280 H         1 UNK         0.0807 
    122 H122      -82.0169   24.8083  -75.9593 H         1 UNK         0.2946 
    123 H123      -79.7313   26.7703  -77.3240 H         1 UNK         0.1144 
    124 H124      -81.0989   27.9933  -78.9266 H         1 UNK         0.0793 
    125 H125      -80.9958   28.9343  -77.4488 H         1 UNK         0.0793 
    126 H126      -82.4667   28.0376  -77.8323 H         1 UNK         0.0793 
    127 H127      -80.1028   26.6534  -75.1616 H         1 UNK         0.2896 
@<TRIPOS>BOND
     1    1    2 1    
     2    1   67 1    
     3    1   68 1    
     4    1   69 1    
     5    2    3 2    
     6    2    4 am   BACKBONE|DICT|INTERRES
     7    4    5 1    
     8    4   70 1    
     9    5    6 1    
    10    5   65 1    
    11    5   71 1    
    12    6    7 1    
    13    6   72 1    
    14    6   73 1    
    15    7    8 1    
    16    8    9 1    
    17    8   74 1    
    18    8   75 1    
    19    9   10 ar   
    20    9   14 ar   
    21   10   11 ar   
    22   10   76 1    
    23   11   12 ar   
    24   11   48 1    
    25   12   13 ar   
    26   12   77 1    
    27   13   14 ar   
    28   13   15 1    
    29   14   78 1    
    30   15   16 1    
    31   15   79 1    
    32   15   80 1    
    33   16   17 1    
    34   17   18 1    
    35   17   81 1    
    36   17   82 1    
    37   18   19 1    
    38   18   22 1    
    39   18   83 1    
    40   19   20 am   BACKBONE|DICT|INTERRES
    41   19   21 2    
    42   20   84 1    
    43   20   85 1    
    44   22   23 am   BACKBONE|DICT|INTERRES
    45   22   86 1    
    46   23   24 2    
    47   23   25 1    
    48   25   26 1    
    49   25   27 1    
    50   25   87 1    
    51   26   88 1    
    52   26   89 1    
    53   26   90 1    
    54   27   28 am   BACKBONE|DICT|INTERRES
    55   27   91 1    
    56   28   29 2    
    57   28   30 1    
    58   30   31 1    
    59   30   32 1    
    60   30   92 1    
    61   31   93 1    
    62   31   94 1    
    63   31   95 1    
    64   32   33 am   BACKBONE|DICT|INTERRES
    65   32   96 1    
    66   33   34 2    
    67   33   35 1    
    68   35   36 1    
    69   35   37 1    
    70   35   97 1    
    71   36   98 1    
    72   36   99 1    
    73   36  100 1    
    74   37   38 am   BACKBONE|DICT|INTERRES
    75   37  101 1    
    76   38   39 2    
    77   38   40 1    
    78   40   41 1    
    79   40   42 1    
    80   40  102 1    
    81   41  103 1    
    82   41  104 1    
    83   41  105 1    
    84   42   43 am   BACKBONE|DICT|INTERRES
    85   42  106 1    
    86   43   44 2    
    87   43   45 1    
    88   45   46 1    
    89   45   49 1    
    90   45  107 1    
    91   46   47 1    
    92   46  108 1    
    93   46  109 1    
    94   47   48 1    
    95   48  110 1    
    96   48  111 1    
    97   49   50 am   BACKBONE|DICT|INTERRES
    98   49  112 1    
    99   50   51 2    
   100   50   52 1    
   101   52   53 1    
   102   52   54 1    
   103   52  113 1    
   104   53  114 1    
   105   53  115 1    
   106   53  116 1    
   107   54   55 am   BACKBONE|DICT|INTERRES
   108   54  117 1    
   109   55   56 2    
   110   55   57 1    
   111   57   58 1    
   112   57   59 1    
   113   57  118 1    
   114   58  119 1    
   115   58  120 1    
   116   58  121 1    
   117   59   60 am   BACKBONE|DICT|INTERRES
   118   59  122 1    
   119   60   61 2    
   120   60   62 1    
   121   62   63 1    
   122   62   64 1    
   123   62  123 1    
   124   63  124 1    
   125   63  125 1    
   126   63  126 1    
   127   64   65 am   BACKBONE|DICT|INTERRES
   128   64  127 1    
   129   65   66 2    
@<TRIPOS>SUBSTRUCTURE
     1 UNK         1 GROUP             0       ****    0 ROOT    
