@<TRIPOS>MOLECULE
3R135
127   129    1
SMALL
USER_CHARGES


@<TRIPOS>ATOM
      1 CA        -76.5490   25.8956  -72.0222 C.3       0 UNK        -0.1998 
      2 C         -78.0315   25.6235  -71.8477 C.2       0 UNK         0.4909 
      3 O         -78.7437   25.4943  -72.8425 O.2       0 UNK        -0.5240 
      4 N         -78.4725   25.4905  -70.5882 N.am      1 UNK        -0.4739 
      5 CA        -79.8475   25.3291  -70.0751 C.3       1 UNK         0.0864 
      6 C6        -80.6780   26.6438  -70.1525 C.3       11 UNK        -0.0881 
      7 S7        -81.5275   26.9815  -71.7381 S.3       11 UNK        -0.2682 
      8 C8        -81.4801   28.7972  -71.8031 C.3       11 UNK         0.0289 
      9 C9        -80.3456   29.2971  -72.6828 C.ar      11 UNK        -0.0687 
     10 C10       -80.5575   29.4645  -74.0535 C.ar      11 UNK        -0.0823 
     11 C11       -79.5426   29.9604  -74.8757 C.ar      11 UNK        -0.0830 
     12 C12       -78.3104   30.3060  -74.3136 C.ar      11 UNK        -0.1021 
     13 C13       -78.0750   30.1131  -72.9486 C.ar      11 UNK        -0.0753 
     14 C14       -79.0973   29.6099  -72.1362 C.ar      11 UNK        -0.0933 
     15 C15       -76.7141   30.4441  -72.3557 C.3       11 UNK         0.0166 
     16 S16       -75.4740   29.2116  -72.8557 S.3       11 UNK        -0.2615 
     17 C17       -74.0762   29.6284  -71.7572 C.3       11 UNK        -0.0865 
     18 CA        -72.9349   30.3950  -72.4752 C.3       10 UNK         0.0862 
     19 C         -71.7980   30.7157  -71.4650 C.2       10 UNK         0.5551 
     20 N         -71.7659   31.9287  -70.9304 N.am      10 UNK        -0.7319 
     21 O         -70.9834   29.8598  -71.1257 O.2       10 UNK        -0.5018 
     22 N         -72.4807   29.6626  -73.6664 N.am      10 UNK        -0.4509 
     23 C         -71.4878   30.0024  -74.4991 C.2       10 UNK         0.4899 
     24 O         -70.8071   31.0221  -74.3804 O.2       10 UNK        -0.4839 
     25 CA        -71.2514   29.0731  -75.7066 C.3       9 UNK         0.0222 
     26 CB        -69.7674   28.9847  -76.1208 C.3       9 UNK        -0.1966 
     27 N         -71.8564   27.7436  -75.5544 N.am      9 UNK        -0.4218 
     28 C         -71.4832   26.7425  -74.7415 C.2       9 UNK         0.5020 
     29 O         -70.5099   26.7823  -73.9892 O.2       9 UNK        -0.5274 
     30 CA        -72.3600   25.4788  -74.7662 C.3       8 UNK         0.0270 
     31 CB        -73.4985   25.5977  -73.7411 C.3       8 UNK        -0.1976 
     32 N         -72.9278   25.2453  -76.0963 N.am      8 UNK        -0.4313 
     33 C         -72.3329   24.5259  -77.0587 C.2       8 UNK         0.5041 
     34 O         -71.3057   23.8683  -76.8875 O.2       8 UNK        -0.5577 
     35 CA        -72.9749   24.5593  -78.4585 C.3       7 UNK         0.0284 
     36 CB        -73.9416   23.3798  -78.6475 C.3       7 UNK        -0.1958 
     37 N         -73.6652   25.8248  -78.7315 N.am      7 UNK        -0.4454 
     38 C         -73.0228   26.9829  -78.9545 C.2       7 UNK         0.5089 
     39 O         -71.7986   27.0722  -79.0466 O.2       7 UNK        -0.5125 
     40 CA        -73.8625   28.2701  -79.0681 C.3       6 UNK         0.0408 
     41 CB        -74.0215   28.6741  -80.5423 C.3       6 UNK        -0.1791 
     42 N         -75.1876   28.2048  -78.4447 N.am      6 UNK        -0.4762 
     43 C         -75.4402   27.9689  -77.1488 C.2       6 UNK         0.5007 
     44 O         -74.5572   27.7415  -76.3204 O.2       6 UNK        -0.5032 
     45 CA        -76.9192   27.9208  -76.7060 C.3       5 UNK         0.0783 
     46 C46       -77.9045   28.5041  -77.7593 C.3       11 UNK        -0.0857 
     47 S47       -79.6482   28.5101  -77.2203 S.3       11 UNK        -0.2512 
     48 C48       -79.7918   30.1136  -76.3677 C.3       11 UNK         0.0225 
     49 N         -77.2959   26.5779  -76.2531 N.am      5 UNK        -0.4615 
     50 C         -77.1444   25.4247  -76.9196 C.2       4 UNK         0.5053 
     51 O         -76.5958   25.3234  -78.0181 O.2       4 UNK        -0.5105 
     52 CA        -77.7036   24.1689  -76.2366 C.3       4 UNK         0.0263 
     53 CB        -76.6706   23.5749  -75.2652 C.3       4 UNK        -0.1981 
     54 N         -78.9409   24.4531  -75.5089 N.am      4 UNK        -0.4224 
     55 C         -80.1524   24.5728  -76.0709 C.2       3 UNK         0.4895 
     56 O         -80.3701   24.4205  -77.2743 O.2       3 UNK        -0.5091 
     57 CA        -81.3079   24.8994  -75.1050 C.3       3 UNK         0.0250 
     58 CB        -82.7084   24.7312  -75.7312 C.3       3 UNK        -0.1996 
     59 N         -81.1781   24.1572  -73.8453 N.am      3 UNK        -0.4254 
     60 C         -81.2398   22.8281  -73.6538 C.2       2 UNK         0.5004 
     61 O         -81.6029   22.0267  -74.5156 O.2       2 UNK        -0.5226 
     62 CA        -80.7711   22.2914  -72.2833 C.3       2 UNK         0.0269 
     63 CB        -79.8107   21.0999  -72.4527 C.3       2 UNK        -0.1926 
     64 N         -80.0844   23.3298  -71.5114 N.am      2 UNK        -0.4687 
     65 C         -80.6359   24.0834  -70.5552 C.2       1 UNK         0.5165 
     66 O         -81.7357   23.8378  -70.0568 O.2       1 UNK        -0.5079 
     67 H67       -75.9876   24.9623  -72.0033 H         1 UNK         0.0900 
     68 H68       -76.1694   26.5477  -71.2359 H         1 UNK         0.0900 
     69 H69       -76.3721   26.3855  -72.9785 H         1 UNK         0.0900 
     70 H70       -77.7798   25.5537  -69.8546 H         1 UNK         0.2959 
     71 H71       -79.6958   25.1361  -69.0116 H         1 UNK         0.1079 
     72 H72       -81.4500   26.6252  -69.3811 H         1 UNK         0.0837 
     73 H73       -80.0387   27.4898  -69.8966 H         1 UNK         0.0837 
     74 H74       -82.4325   29.1525  -72.1995 H         1 UNK         0.0685 
     75 H75       -81.4027   29.2156  -70.7985 H         1 UNK         0.0685 
     76 H76       -81.5153   29.2038  -74.4832 H         1 UNK         0.1434 
     77 H77       -77.5220   30.7011  -74.9395 H         1 UNK         0.1329 
     78 H78       -78.9247   29.4654  -71.0788 H         1 UNK         0.1335 
     79 H79       -76.3956   31.4343  -72.6849 H         1 UNK         0.0680 
     80 H80       -76.7762   30.4802  -71.2670 H         1 UNK         0.0680 
     81 H81       -73.6966   28.6933  -71.3401 H         1 UNK         0.1032 
     82 H82       -74.4436   30.2035  -70.9051 H         1 UNK         0.1032 
     83 H83       -73.3426   31.3406  -72.8379 H         1 UNK         0.0461 
     84 H84       -71.0466   32.1495  -70.2595 H         1 UNK         0.3453 
     85 H85       -72.4361   32.6339  -71.1951 H         1 UNK         0.3453 
     86 H86       -72.9972   28.8209  -73.8723 H         1 UNK         0.2984 
     87 H87       -71.7868   29.5356  -76.5368 H         1 UNK         0.0554 
     88 H88       -69.6351   28.3254  -76.9789 H         1 UNK         0.0847 
     89 H89       -69.1396   28.6145  -75.3101 H         1 UNK         0.0847 
     90 H90       -69.3819   29.9646  -76.4045 H         1 UNK         0.0847 
     91 H91       -72.7426   27.6306  -76.0410 H         1 UNK         0.3141 
     92 H92       -71.7341   24.6311  -74.4788 H         1 UNK         0.0743 
     93 H93       -74.1754   26.4182  -73.9803 H         1 UNK         0.0784 
     94 H94       -74.0827   24.6791  -73.6969 H         1 UNK         0.0784 
     95 H95       -73.1063   25.7801  -72.7396 H         1 UNK         0.0784 
     96 H96       -73.7497   25.7863  -76.3366 H         1 UNK         0.3213 
     97 H97       -72.1700   24.4488  -79.1888 H         1 UNK         0.0855 
     98 H98       -74.7603   23.4047  -77.9299 H         1 UNK         0.0814 
     99 H99       -73.4238   22.4290  -78.5147 H         1 UNK         0.0814 
    100 H100      -74.3736   23.3764  -79.6483 H         1 UNK         0.0814 
    101 H101      -74.6789   25.8227  -78.6648 H         1 UNK         0.3105 
    102 H102      -73.3060   29.0597  -78.5594 H         1 UNK         0.0547 
    103 H103      -73.0496   28.7652  -81.0297 H         1 UNK         0.0837 
    104 H104      -74.5982   27.9374  -81.1030 H         1 UNK         0.0837 
    105 H105      -74.5199   29.6386  -80.6401 H         1 UNK         0.0837 
    106 H106      -75.9738   28.3313  -79.0654 H         1 UNK         0.3020 
    107 H107      -76.9620   28.5502  -75.8191 H         1 UNK         0.1245 
    108 H108      -77.6210   29.5212  -78.0359 H         1 UNK         0.0781 
    109 H109      -77.8699   27.9153  -78.6779 H         1 UNK         0.0781 
    110 H110      -79.1142   30.8473  -76.8062 H         1 UNK         0.0836 
    111 H111      -80.7984   30.5036  -76.5262 H         1 UNK         0.0836 
    112 H112      -77.7564   26.5430  -75.3551 H         1 UNK         0.3022 
    113 H113      -77.9118   23.4286  -77.0121 H         1 UNK         0.0747 
    114 H114      -77.0359   22.6507  -74.8170 H         1 UNK         0.0793 
    115 H115      -75.7365   23.3395  -75.7753 H         1 UNK         0.0793 
    116 H116      -76.4333   24.2663  -74.4575 H         1 UNK         0.0793 
    117 H117      -78.8585   24.6577  -74.5152 H         1 UNK         0.3047 
    118 H118      -81.1905   25.9531  -74.8451 H         1 UNK         0.0822 
    119 H119      -83.4938   24.9689  -75.0138 H         1 UNK         0.0807 
    120 H120      -82.8762   23.7160  -76.0913 H         1 UNK         0.0807 
    121 H121      -82.8339   25.4006  -76.5830 H         1 UNK         0.0807 
    122 H122      -80.8256   24.7137  -73.0746 H         1 UNK         0.2946 
    123 H123      -81.6603   21.9466  -71.7506 H         1 UNK         0.1144 
    124 H124      -80.2978   20.2716  -72.9689 H         1 UNK         0.0793 
    125 H125      -79.4741   20.7222  -71.4870 H         1 UNK         0.0793 
    126 H126      -78.9282   21.3731  -73.0328 H         1 UNK         0.0793 
    127 H127      -79.2015   23.6548  -71.8851 H         1 UNK         0.2896 
@<TRIPOS>BOND
     1    1    2 1    
     2    1   67 1    
     3    1   68 1    
     4    1   69 1    
     5    2    3 2    
     6    2    4 am   BACKBONE|DICT|INTERRES
     7    4    5 1    
     8    4   70 1    
     9    5    6 1    
    10    5   65 1    
    11    5   71 1    
    12    6    7 1    
    13    6   72 1    
    14    6   73 1    
    15    7    8 1    
    16    8    9 1    
    17    8   74 1    
    18    8   75 1    
    19    9   10 ar   
    20    9   14 ar   
    21   10   11 ar   
    22   10   76 1    
    23   11   12 ar   
    24   11   48 1    
    25   12   13 ar   
    26   12   77 1    
    27   13   14 ar   
    28   13   15 1    
    29   14   78 1    
    30   15   16 1    
    31   15   79 1    
    32   15   80 1    
    33   16   17 1    
    34   17   18 1    
    35   17   81 1    
    36   17   82 1    
    37   18   19 1    
    38   18   22 1    
    39   18   83 1    
    40   19   20 am   BACKBONE|DICT|INTERRES
    41   19   21 2    
    42   20   84 1    
    43   20   85 1    
    44   22   23 am   BACKBONE|DICT|INTERRES
    45   22   86 1    
    46   23   24 2    
    47   23   25 1    
    48   25   26 1    
    49   25   27 1    
    50   25   87 1    
    51   26   88 1    
    52   26   89 1    
    53   26   90 1    
    54   27   28 am   BACKBONE|DICT|INTERRES
    55   27   91 1    
    56   28   29 2    
    57   28   30 1    
    58   30   31 1    
    59   30   32 1    
    60   30   92 1    
    61   31   93 1    
    62   31   94 1    
    63   31   95 1    
    64   32   33 am   BACKBONE|DICT|INTERRES
    65   32   96 1    
    66   33   34 2    
    67   33   35 1    
    68   35   36 1    
    69   35   37 1    
    70   35   97 1    
    71   36   98 1    
    72   36   99 1    
    73   36  100 1    
    74   37   38 am   BACKBONE|DICT|INTERRES
    75   37  101 1    
    76   38   39 2    
    77   38   40 1    
    78   40   41 1    
    79   40   42 1    
    80   40  102 1    
    81   41  103 1    
    82   41  104 1    
    83   41  105 1    
    84   42   43 am   BACKBONE|DICT|INTERRES
    85   42  106 1    
    86   43   44 2    
    87   43   45 1    
    88   45   46 1    
    89   45   49 1    
    90   45  107 1    
    91   46   47 1    
    92   46  108 1    
    93   46  109 1    
    94   47   48 1    
    95   48  110 1    
    96   48  111 1    
    97   49   50 am   BACKBONE|DICT|INTERRES
    98   49  112 1    
    99   50   51 2    
   100   50   52 1    
   101   52   53 1    
   102   52   54 1    
   103   52  113 1    
   104   53  114 1    
   105   53  115 1    
   106   53  116 1    
   107   54   55 am   BACKBONE|DICT|INTERRES
   108   54  117 1    
   109   55   56 2    
   110   55   57 1    
   111   57   58 1    
   112   57   59 1    
   113   57  118 1    
   114   58  119 1    
   115   58  120 1    
   116   58  121 1    
   117   59   60 am   BACKBONE|DICT|INTERRES
   118   59  122 1    
   119   60   61 2    
   120   60   62 1    
   121   62   63 1    
   122   62   64 1    
   123   62  123 1    
   124   63  124 1    
   125   63  125 1    
   126   63  126 1    
   127   64   65 am   BACKBONE|DICT|INTERRES
   128   64  127 1    
   129   65   66 2    
@<TRIPOS>SUBSTRUCTURE
     1 UNK         1 GROUP             0       ****    0 ROOT    
