@<TRIPOS>MOLECULE
3R135
127   129    1
SMALL
USER_CHARGES


@<TRIPOS>ATOM
      1 CA        -83.6960   28.6460  -69.6001 C.3       0 UNK        -0.1998 
      2 C         -82.8847   28.2135  -70.8125 C.2       0 UNK         0.4909 
      3 O         -82.8125   28.9518  -71.7959 O.2       0 UNK        -0.5240 
      4 N         -82.2667   27.0278  -70.7459 N.am      1 UNK        -0.4739 
      5 CA        -81.4818   26.4349  -71.8337 C.3       1 UNK         0.0864 
      6 C6        -80.5459   25.3083  -71.3222 C.3       11 UNK        -0.0881 
      7 S7        -79.2647   25.9014  -70.1629 S.3       11 UNK        -0.2682 
      8 C8        -77.7587   25.9134  -71.1950 C.3       11 UNK         0.0289 
      9 C9        -77.3247   27.3314  -71.5358 C.ar      11 UNK        -0.0687 
     10 C10       -77.9979   28.0580  -72.5216 C.ar      11 UNK        -0.0823 
     11 C11       -77.5957   29.3570  -72.8449 C.ar      11 UNK        -0.0830 
     12 C12       -76.5270   29.9371  -72.1595 C.ar      11 UNK        -0.1021 
     13 C13       -75.8164   29.2074  -71.2052 C.ar      11 UNK        -0.0753 
     14 C14       -76.2272   27.9086  -70.8874 C.ar      11 UNK        -0.0933 
     15 C15       -74.5914   29.8143  -70.5387 C.3       11 UNK         0.0166 
     16 S16       -73.1109   29.6518  -71.5919 S.3       11 UNK        -0.2615 
     17 C17       -73.2300   31.1097  -72.6917 C.3       11 UNK        -0.0865 
     18 CA        -73.7055   30.7864  -74.1414 C.3       10 UNK         0.0862 
     19 C         -73.9491   32.0686  -74.9936 C.2       10 UNK         0.5551 
     20 N         -73.7266   32.0443  -76.3024 N.am      10 UNK        -0.7319 
     21 O         -74.3730   33.0957  -74.4690 O.2       10 UNK        -0.5018 
     22 N         -72.9103   29.7485  -74.8152 N.am      10 UNK        -0.4509 
     23 C         -71.6027   29.7865  -75.1010 C.2       10 UNK         0.4899 
     24 O         -70.8590   30.7306  -74.8296 O.2       10 UNK        -0.4839 
     25 CA        -71.0506   28.5436  -75.8257 C.3       9 UNK         0.0222 
     26 CB        -69.5096   28.5112  -75.9094 C.3       9 UNK        -0.1966 
     27 N         -71.5892   27.3024  -75.2576 N.am      9 UNK        -0.4218 
     28 C         -71.4032   26.8176  -74.0192 C.2       9 UNK         0.5020 
     29 O         -70.6243   27.2980  -73.1951 O.2       9 UNK        -0.5274 
     30 CA        -72.2415   25.5892  -73.6178 C.3       8 UNK         0.0270 
     31 CB        -73.4201   26.0206  -72.7270 C.3       8 UNK        -0.1976 
     32 N         -72.7647   24.8384  -74.7616 N.am      8 UNK        -0.4313 
     33 C         -72.0311   24.0887  -75.5951 C.2       8 UNK         0.5041 
     34 O         -70.8223   23.8949  -75.4622 O.2       8 UNK        -0.5577 
     35 CA        -72.7696   23.4753  -76.7962 C.3       7 UNK         0.0284 
     36 CB        -73.5080   22.1902  -76.3872 C.3       7 UNK        -0.1958 
     37 N         -73.7112   24.4165  -77.4104 N.am      7 UNK        -0.4454 
     38 C         -73.3526   25.4924  -78.1259 C.2       7 UNK         0.5089 
     39 O         -72.1853   25.7991  -78.3657 O.2       7 UNK        -0.5125 
     40 CA        -74.4870   26.3927  -78.6436 C.3       6 UNK         0.0408 
     41 CB        -75.0244   25.8692  -79.9845 C.3       6 UNK        -0.1791 
     42 N         -75.5889   26.5162  -77.6873 N.am      6 UNK        -0.4762 
     43 C         -75.5121   27.2036  -76.5366 C.2       6 UNK         0.5007 
     44 O         -74.5048   27.8126  -76.1731 O.2       6 UNK        -0.5032 
     45 CA        -76.7434   27.1464  -75.6065 C.3       5 UNK         0.0783 
     46 C46       -77.8045   28.2095  -75.9931 C.3       11 UNK        -0.0857 
     47 S47       -77.3589   29.9165  -75.5307 S.3       11 UNK        -0.2512 
     48 C48       -78.2740   30.1231  -73.9680 C.3       11 UNK         0.0225 
     49 N         -77.3466   25.8082  -75.5592 N.am      5 UNK        -0.4615 
     50 C         -76.7031   24.6757  -75.2357 C.2       4 UNK         0.5053 
     51 O         -75.5469   24.6533  -74.8205 O.2       4 UNK        -0.5105 
     52 CA        -77.4282   23.3327  -75.4531 C.3       4 UNK         0.0263 
     53 CB        -77.8734   22.7468  -74.1039 C.3       4 UNK        -0.1981 
     54 N         -78.5842   23.3972  -76.3508 N.am      4 UNK        -0.4224 
     55 C         -78.5882   23.8296  -77.6216 C.2       3 UNK         0.4895 
     56 O         -77.5696   24.1364  -78.2428 O.2       3 UNK        -0.5091 
     57 CA        -79.9698   24.0286  -78.2812 C.3       3 UNK         0.0250 
     58 CB        -80.2942   22.8475  -79.2093 C.3       3 UNK        -0.1996 
     59 N         -81.0771   24.2173  -77.3278 N.am      3 UNK        -0.4254 
     60 C         -81.1376   25.1752  -76.3892 C.2       2 UNK         0.5004 
     61 O         -80.2655   26.0388  -76.2557 O.2       2 UNK        -0.5226 
     62 CA        -82.2913   25.1175  -75.3709 C.3       2 UNK         0.0269 
     63 CB        -82.8251   23.6806  -75.1498 C.3       2 UNK        -0.1926 
     64 N         -81.7573   25.6842  -74.1329 N.am      2 UNK        -0.4687 
     65 C         -82.3824   25.9050  -72.9719 C.2       1 UNK         0.5165 
     66 O         -83.5777   25.6713  -72.7736 O.2       1 UNK        -0.5079 
     67 H67       -83.3122   29.5875  -69.2082 H         1 UNK         0.0900 
     68 H68       -84.7389   28.7924  -69.8800 H         1 UNK         0.0900 
     69 H69       -83.6601   27.9063  -68.8005 H         1 UNK         0.0900 
     70 H70       -82.3678   26.4576  -69.9187 H         1 UNK         0.2959 
     71 H71       -80.8694   27.2308  -72.2587 H         1 UNK         0.1079 
     72 H72       -81.1302   24.5412  -70.8101 H         1 UNK         0.0837 
     73 H73       -80.0601   24.7914  -72.1505 H         1 UNK         0.0837 
     74 H74       -76.9659   25.3998  -70.6489 H         1 UNK         0.0685 
     75 H75       -77.8987   25.3440  -72.1139 H         1 UNK         0.0685 
     76 H76       -78.8149   27.6014  -73.0587 H         1 UNK         0.1434 
     77 H77       -76.2170   30.9429  -72.4062 H         1 UNK         0.1329 
     78 H78       -75.6831   27.3422  -70.1441 H         1 UNK         0.1335 
     79 H79       -74.3970   29.3094  -69.5913 H         1 UNK         0.0680 
     80 H80       -74.7705   30.8611  -70.2896 H         1 UNK         0.0680 
     81 H81       -73.8930   31.8413  -72.2280 H         1 UNK         0.1032 
     82 H82       -72.2503   31.5884  -72.7195 H         1 UNK         0.1032 
     83 H83       -74.6919   30.3358  -74.0638 H         1 UNK         0.0461 
     84 H84       -73.8964   32.8731  -76.8497 H         1 UNK         0.3453 
     85 H85       -73.4005   31.2008  -76.7454 H         1 UNK         0.3453 
     86 H86       -73.4466   28.9524  -75.1525 H         1 UNK         0.2984 
     87 H87       -71.4317   28.5928  -76.8468 H         1 UNK         0.0554 
     88 H88       -69.1327   29.3723  -76.4624 H         1 UNK         0.0847 
     89 H89       -69.1596   27.6166  -76.4244 H         1 UNK         0.0847 
     90 H90       -69.0466   28.5344  -74.9226 H         1 UNK         0.0847 
     91 H91       -72.2749   26.8311  -75.8323 H         1 UNK         0.3141 
     92 H92       -71.5975   24.9232  -73.0400 H         1 UNK         0.0743 
     93 H93       -74.0083   25.1636  -72.3987 H         1 UNK         0.0784 
     94 H94       -73.0661   26.5328  -71.8315 H         1 UNK         0.0784 
     95 H95       -74.0904   26.7062  -73.2482 H         1 UNK         0.0784 
     96 H96       -73.7753   24.8716  -74.8992 H         1 UNK         0.3213 
     97 H97       -72.0210   23.2105  -77.5465 H         1 UNK         0.0855 
     98 H98       -74.2509   22.3755  -75.6112 H         1 UNK         0.0814 
     99 H99       -72.8082   21.4519  -75.9933 H         1 UNK         0.0814 
    100 H100      -74.0145   21.7334  -77.2376 H         1 UNK         0.0814 
    101 H101      -74.6948   24.2604  -77.2444 H         1 UNK         0.3105 
    102 H102      -74.0712   27.3884  -78.8127 H         1 UNK         0.0547 
    103 H103      -75.7867   26.5326  -80.3929 H         1 UNK         0.0837 
    104 H104      -74.2255   25.8007  -80.7241 H         1 UNK         0.0837 
    105 H105      -75.4630   24.8754  -79.8862 H         1 UNK         0.0837 
    106 H106      -76.4298   25.9866  -77.8888 H         1 UNK         0.3020 
    107 H107      -76.3762   27.3585  -74.6009 H         1 UNK         0.1245 
    108 H108      -78.7544   27.9814  -75.5106 H         1 UNK         0.0781 
    109 H109      -78.0155   28.1797  -77.0639 H         1 UNK         0.0781 
    110 H110      -79.3106   29.8047  -74.0896 H         1 UNK         0.0836 
    111 H111      -78.3111   31.1848  -73.7191 H         1 UNK         0.0836 
    112 H112      -78.3056   25.7466  -75.8859 H         1 UNK         0.3022 
    113 H113      -76.7066   22.6492  -75.9041 H         1 UNK         0.0747 
    114 H114      -78.6378   23.3619  -73.6288 H         1 UNK         0.0793 
    115 H115      -78.2767   21.7408  -74.2217 H         1 UNK         0.0793 
    116 H116      -77.0336   22.6762  -73.4106 H         1 UNK         0.0793 
    117 H117      -79.4759   23.1602  -75.9430 H         1 UNK         0.3047 
    118 H118      -79.9044   24.9344  -78.8876 H         1 UNK         0.0822 
    119 H119      -79.5017   22.6998  -79.9447 H         1 UNK         0.0807 
    120 H120      -81.2176   23.0187  -79.7630 H         1 UNK         0.0807 
    121 H121      -80.4016   21.9146  -78.6544 H         1 UNK         0.0807 
    122 H122      -81.8236   23.5381  -77.3672 H         1 UNK         0.2946 
    123 H123      -83.0961   25.7594  -75.7346 H         1 UNK         0.1144 
    124 H124      -83.6197   23.6530  -74.4051 H         1 UNK         0.0793 
    125 H125      -82.0384   23.0034  -74.8147 H         1 UNK         0.0793 
    126 H126      -83.2559   23.2678  -76.0625 H         1 UNK         0.0793 
    127 H127      -80.7913   25.9702  -74.2364 H         1 UNK         0.2896 
@<TRIPOS>BOND
     1    1    2 1    
     2    1   67 1    
     3    1   68 1    
     4    1   69 1    
     5    2    3 2    
     6    2    4 am   BACKBONE|DICT|INTERRES
     7    4    5 1    
     8    4   70 1    
     9    5    6 1    
    10    5   65 1    
    11    5   71 1    
    12    6    7 1    
    13    6   72 1    
    14    6   73 1    
    15    7    8 1    
    16    8    9 1    
    17    8   74 1    
    18    8   75 1    
    19    9   10 ar   
    20    9   14 ar   
    21   10   11 ar   
    22   10   76 1    
    23   11   12 ar   
    24   11   48 1    
    25   12   13 ar   
    26   12   77 1    
    27   13   14 ar   
    28   13   15 1    
    29   14   78 1    
    30   15   16 1    
    31   15   79 1    
    32   15   80 1    
    33   16   17 1    
    34   17   18 1    
    35   17   81 1    
    36   17   82 1    
    37   18   19 1    
    38   18   22 1    
    39   18   83 1    
    40   19   20 am   BACKBONE|DICT|INTERRES
    41   19   21 2    
    42   20   84 1    
    43   20   85 1    
    44   22   23 am   BACKBONE|DICT|INTERRES
    45   22   86 1    
    46   23   24 2    
    47   23   25 1    
    48   25   26 1    
    49   25   27 1    
    50   25   87 1    
    51   26   88 1    
    52   26   89 1    
    53   26   90 1    
    54   27   28 am   BACKBONE|DICT|INTERRES
    55   27   91 1    
    56   28   29 2    
    57   28   30 1    
    58   30   31 1    
    59   30   32 1    
    60   30   92 1    
    61   31   93 1    
    62   31   94 1    
    63   31   95 1    
    64   32   33 am   BACKBONE|DICT|INTERRES
    65   32   96 1    
    66   33   34 2    
    67   33   35 1    
    68   35   36 1    
    69   35   37 1    
    70   35   97 1    
    71   36   98 1    
    72   36   99 1    
    73   36  100 1    
    74   37   38 am   BACKBONE|DICT|INTERRES
    75   37  101 1    
    76   38   39 2    
    77   38   40 1    
    78   40   41 1    
    79   40   42 1    
    80   40  102 1    
    81   41  103 1    
    82   41  104 1    
    83   41  105 1    
    84   42   43 am   BACKBONE|DICT|INTERRES
    85   42  106 1    
    86   43   44 2    
    87   43   45 1    
    88   45   46 1    
    89   45   49 1    
    90   45  107 1    
    91   46   47 1    
    92   46  108 1    
    93   46  109 1    
    94   47   48 1    
    95   48  110 1    
    96   48  111 1    
    97   49   50 am   BACKBONE|DICT|INTERRES
    98   49  112 1    
    99   50   51 2    
   100   50   52 1    
   101   52   53 1    
   102   52   54 1    
   103   52  113 1    
   104   53  114 1    
   105   53  115 1    
   106   53  116 1    
   107   54   55 am   BACKBONE|DICT|INTERRES
   108   54  117 1    
   109   55   56 2    
   110   55   57 1    
   111   57   58 1    
   112   57   59 1    
   113   57  118 1    
   114   58  119 1    
   115   58  120 1    
   116   58  121 1    
   117   59   60 am   BACKBONE|DICT|INTERRES
   118   59  122 1    
   119   60   61 2    
   120   60   62 1    
   121   62   63 1    
   122   62   64 1    
   123   62  123 1    
   124   63  124 1    
   125   63  125 1    
   126   63  126 1    
   127   64   65 am   BACKBONE|DICT|INTERRES
   128   64  127 1    
   129   65   66 2    
@<TRIPOS>SUBSTRUCTURE
     1 UNK         1 GROUP             0       ****    0 ROOT    
