@<TRIPOS>MOLECULE
3R135
127   129    1
SMALL
USER_CHARGES


@<TRIPOS>ATOM
      1 CA        -82.0649   23.1186  -72.3737 C.3       0 UNK        -0.1998 
      2 C         -80.7082   23.3782  -71.7248 C.2       0 UNK         0.4909 
      3 O         -79.9810   22.4269  -71.4495 O.2       0 UNK        -0.5240 
      4 N         -80.3198   24.6311  -71.4524 N.am      1 UNK        -0.4739 
      5 CA        -80.9946   25.8784  -71.8215 C.3       1 UNK         0.0864 
      6 C6        -80.6147   27.0041  -70.8286 C.3       11 UNK        -0.0881 
      7 S7        -81.6570   28.4890  -71.0101 S.3       11 UNK        -0.2682 
      8 C8        -80.5382   29.7893  -70.3934 C.3       11 UNK         0.0289 
      9 C9        -79.3657   30.0504  -71.3310 C.ar      11 UNK        -0.0687 
     10 C10       -79.5913   30.5788  -72.6050 C.ar      11 UNK        -0.0823 
     11 C11       -78.5240   30.8462  -73.4680 C.ar      11 UNK        -0.0830 
     12 C12       -77.2166   30.5915  -73.0380 C.ar      11 UNK        -0.1021 
     13 C13       -76.9765   30.0541  -71.7699 C.ar      11 UNK        -0.0753 
     14 C14       -78.0549   29.7898  -70.9192 C.ar      11 UNK        -0.0933 
     15 C15       -75.5525   29.7737  -71.3133 C.3       11 UNK         0.0166 
     16 S16       -75.2290   27.9874  -71.2039 S.3       11 UNK        -0.2615 
     17 C17       -73.4301   27.9673  -70.8776 C.3       11 UNK        -0.0865 
     18 CA        -72.5856   27.3007  -72.0071 C.3       10 UNK         0.0862 
     19 C         -72.6002   25.7449  -71.9734 C.2       10 UNK         0.5551 
     20 N         -72.4995   25.0451  -73.0961 N.am      10 UNK        -0.7319 
     21 O         -72.6695   25.1484  -70.9013 O.2       10 UNK        -0.5018 
     22 N         -72.8575   27.8760  -73.3326 N.am      10 UNK        -0.4509 
     23 C         -72.5051   29.1094  -73.7075 C.2       10 UNK         0.4899 
     24 O         -71.8210   29.8659  -73.0146 O.2       10 UNK        -0.4839 
     25 CA        -73.0305   29.5822  -75.0756 C.3       9 UNK         0.0222 
     26 CB        -72.7349   31.0709  -75.3564 C.3       9 UNK        -0.1966 
     27 N         -72.5752   28.7440  -76.1896 N.am      9 UNK        -0.4218 
     28 C         -71.3052   28.4883  -76.5409 C.2       9 UNK         0.5020 
     29 O         -70.3228   28.9434  -75.9509 O.2       9 UNK        -0.5274 
     30 CA        -71.0956   27.5964  -77.7829 C.3       8 UNK         0.0270 
     31 CB        -69.6494   27.0683  -77.9004 C.3       8 UNK        -0.1976 
     32 N         -72.0459   26.4841  -77.8977 N.am      8 UNK        -0.4313 
     33 C         -72.2854   25.5108  -77.0083 C.2       8 UNK         0.5041 
     34 O         -71.7757   25.4654  -75.8871 O.2       8 UNK        -0.5577 
     35 CA        -73.2534   24.3986  -77.4663 C.3       7 UNK         0.0284 
     36 CB        -73.4332   23.3008  -76.4027 C.3       7 UNK        -0.1958 
     37 N         -74.5696   24.9233  -77.8414 N.am      7 UNK        -0.4454 
     38 C         -74.8511   25.5899  -78.9692 C.2       7 UNK         0.5089 
     39 O         -74.0278   25.7870  -79.8646 O.2       7 UNK        -0.5125 
     40 CA        -76.2610   26.1924  -79.0968 C.3       6 UNK         0.0408 
     41 CB        -77.2510   25.1530  -79.6441 C.3       6 UNK        -0.1791 
     42 N         -76.7701   26.7431  -77.8382 N.am      6 UNK        -0.4762 
     43 C         -76.2001   27.7406  -77.1433 C.2       6 UNK         0.5007 
     44 O         -75.1790   28.3328  -77.4981 O.2       6 UNK        -0.5032 
     45 CA        -76.8553   28.0870  -75.7907 C.3       5 UNK         0.0783 
     46 C46       -78.1740   28.8796  -75.9767 C.3       11 UNK        -0.0857 
     47 S47       -77.8405   30.6599  -76.2002 S.3       11 UNK        -0.2512 
     48 C48       -78.8082   31.4230  -74.8529 C.3       11 UNK         0.0225 
     49 N         -77.0260   26.8915  -74.9643 N.am      5 UNK        -0.4615 
     50 C         -76.0299   26.0979  -74.5465 C.2       4 UNK         0.5053 
     51 O         -74.8391   26.3554  -74.7169 O.2       4 UNK        -0.5105 
     52 CA        -76.4312   24.7675  -73.8851 C.3       4 UNK         0.0263 
     53 CB        -76.6045   24.9186  -72.3670 C.3       4 UNK        -0.1981 
     54 N         -77.6588   24.2213  -74.4672 N.am      4 UNK        -0.4224 
     55 C         -77.7362   23.6721  -75.6876 C.2       3 UNK         0.4895 
     56 O         -76.7664   23.5125  -76.4272 O.2       3 UNK        -0.5091 
     57 CA        -79.1360   23.2659  -76.1815 C.3       3 UNK         0.0250 
     58 CB        -79.5172   21.8774  -75.6435 C.3       3 UNK        -0.1996 
     59 N         -80.1725   24.2343  -75.8142 N.am      3 UNK        -0.4254 
     60 C         -80.2364   25.4923  -76.2740 C.2       2 UNK         0.5004 
     61 O         -79.4654   25.9513  -77.1160 O.2       2 UNK        -0.5226 
     62 CA        -81.3042   26.4088  -75.6449 C.3       2 UNK         0.0269 
     63 CB        -82.6303   26.2943  -76.4124 C.3       2 UNK        -0.1926 
     64 N         -81.5416   26.1627  -74.2138 N.am      2 UNK        -0.4687 
     65 C         -80.5935   26.2258  -73.2668 C.2       1 UNK         0.5165 
     66 O         -79.4165   26.4872  -73.5104 O.2       1 UNK        -0.5079 
     67 H67       -82.2474   22.0468  -72.4516 H         1 UNK         0.0900 
     68 H68       -82.1124   23.5319  -73.3787 H         1 UNK         0.0900 
     69 H69       -82.8711   23.5424  -71.7758 H         1 UNK         0.0900 
     70 H70       -79.4143   24.7578  -71.0239 H         1 UNK         0.2959 
     71 H71       -82.0757   25.7402  -71.7686 H         1 UNK         0.1079 
     72 H72       -80.7379   26.6507  -69.8035 H         1 UNK         0.0837 
     73 H73       -79.5601   27.2692  -70.9274 H         1 UNK         0.0837 
     74 H74       -80.1888   29.5164  -69.3963 H         1 UNK         0.0685 
     75 H75       -81.1068   30.7127  -70.2751 H         1 UNK         0.0685 
     76 H76       -80.6059   30.7797  -72.9212 H         1 UNK         0.1434 
     77 H77       -76.3852   30.8061  -73.6951 H         1 UNK         0.1329 
     78 H78       -77.8684   29.3795  -69.9361 H         1 UNK         0.1335 
     79 H79       -75.3847   30.2322  -70.3377 H         1 UNK         0.0680 
     80 H80       -74.8356   30.2279  -71.9990 H         1 UNK         0.0680 
     81 H81       -73.0835   28.9906  -70.7282 H         1 UNK         0.1032 
     82 H82       -73.2577   27.4762  -69.9185 H         1 UNK         0.1032 
     83 H83       -71.5421   27.5319  -71.7853 H         1 UNK         0.0461 
     84 H84       -72.3780   25.4839  -74.0043 H         1 UNK         0.3453 
     85 H85       -72.4943   24.0410  -73.0355 H         1 UNK         0.3453 
     86 H86       -73.4471   27.3070  -73.9390 H         1 UNK         0.2984 
     87 H87       -74.1122   29.4775  -75.0345 H         1 UNK         0.0554 
     88 H88       -73.1808   31.3919  -76.2978 H         1 UNK         0.0847 
     89 H89       -71.6642   31.2713  -75.4060 H         1 UNK         0.0847 
     90 H90       -73.1477   31.7046  -74.5706 H         1 UNK         0.0847 
     91 H91       -73.3200   28.3270  -76.7414 H         1 UNK         0.3141 
     92 H92       -71.2804   28.2398  -78.6443 H         1 UNK         0.0743 
     93 H93       -68.9326   27.8891  -77.9480 H         1 UNK         0.0784 
     94 H94       -69.3785   26.4474  -77.0455 H         1 UNK         0.0784 
     95 H95       -69.5158   26.4727  -78.8034 H         1 UNK         0.0784 
     96 H96       -72.5677   26.4319  -78.7696 H         1 UNK         0.3213 
     97 H97       -72.8074   23.9306  -78.3464 H         1 UNK         0.0855 
     98 H98       -73.8498   23.7045  -75.4809 H         1 UNK         0.0814 
     99 H99       -72.4777   22.8381  -76.1529 H         1 UNK         0.0814 
    100 H100      -74.0962   22.5097  -76.7532 H         1 UNK         0.0814 
    101 H101      -75.3196   24.7741  -77.1742 H         1 UNK         0.3105 
    102 H102      -76.2041   27.0155  -79.8118 H         1 UNK         0.0547 
    103 H103      -78.2368   25.5899  -79.8041 H         1 UNK         0.0837 
    104 H104      -76.9116   24.7573  -80.6022 H         1 UNK         0.0837 
    105 H105      -77.3674   24.3081  -78.9651 H         1 UNK         0.0837 
    106 H106      -77.6348   26.3405  -77.4823 H         1 UNK         0.3020 
    107 H107      -76.1586   28.7154  -75.2377 H         1 UNK         0.1245 
    108 H108      -78.8186   28.7446  -75.1075 H         1 UNK         0.0781 
    109 H109      -78.7556   28.5190  -76.8267 H         1 UNK         0.0781 
    110 H110      -79.8663   31.3209  -75.0992 H         1 UNK         0.0836 
    111 H111      -78.5996   32.4933  -74.8349 H         1 UNK         0.0836 
    112 H112      -77.9739   26.6586  -74.6813 H         1 UNK         0.3022 
    113 H113      -75.6277   24.0497  -74.0559 H         1 UNK         0.0747 
    114 H114      -76.9654   23.9964  -71.9114 H         1 UNK         0.0793 
    115 H115      -75.6497   25.1548  -71.8972 H         1 UNK         0.0793 
    116 H116      -77.2999   25.7188  -72.1119 H         1 UNK         0.0793 
    117 H117      -78.5108   24.3839  -73.9507 H         1 UNK         0.3047 
    118 H118      -79.0984   23.2126  -77.2718 H         1 UNK         0.0822 
    119 H119      -78.7699   21.1337  -75.9241 H         1 UNK         0.0807 
    120 H120      -80.4720   21.5425  -76.0492 H         1 UNK         0.0807 
    121 H121      -79.5920   21.8684  -74.5551 H         1 UNK         0.0807 
    122 H122      -80.8628   23.9360  -75.1431 H         1 UNK         0.2946 
    123 H123      -80.9420   27.4344  -75.7434 H         1 UNK         0.1144 
    124 H124      -82.4837   26.4910  -77.4756 H         1 UNK         0.0793 
    125 H125      -83.3622   27.0168  -76.0506 H         1 UNK         0.0793 
    126 H126      -83.0667   25.2988  -76.3223 H         1 UNK         0.0793 
    127 H127      -82.4940   25.9589  -73.9458 H         1 UNK         0.2896 
@<TRIPOS>BOND
     1    1    2 1    
     2    1   67 1    
     3    1   68 1    
     4    1   69 1    
     5    2    3 2    
     6    2    4 am   BACKBONE|DICT|INTERRES
     7    4    5 1    
     8    4   70 1    
     9    5    6 1    
    10    5   65 1    
    11    5   71 1    
    12    6    7 1    
    13    6   72 1    
    14    6   73 1    
    15    7    8 1    
    16    8    9 1    
    17    8   74 1    
    18    8   75 1    
    19    9   10 ar   
    20    9   14 ar   
    21   10   11 ar   
    22   10   76 1    
    23   11   12 ar   
    24   11   48 1    
    25   12   13 ar   
    26   12   77 1    
    27   13   14 ar   
    28   13   15 1    
    29   14   78 1    
    30   15   16 1    
    31   15   79 1    
    32   15   80 1    
    33   16   17 1    
    34   17   18 1    
    35   17   81 1    
    36   17   82 1    
    37   18   19 1    
    38   18   22 1    
    39   18   83 1    
    40   19   20 am   BACKBONE|DICT|INTERRES
    41   19   21 2    
    42   20   84 1    
    43   20   85 1    
    44   22   23 am   BACKBONE|DICT|INTERRES
    45   22   86 1    
    46   23   24 2    
    47   23   25 1    
    48   25   26 1    
    49   25   27 1    
    50   25   87 1    
    51   26   88 1    
    52   26   89 1    
    53   26   90 1    
    54   27   28 am   BACKBONE|DICT|INTERRES
    55   27   91 1    
    56   28   29 2    
    57   28   30 1    
    58   30   31 1    
    59   30   32 1    
    60   30   92 1    
    61   31   93 1    
    62   31   94 1    
    63   31   95 1    
    64   32   33 am   BACKBONE|DICT|INTERRES
    65   32   96 1    
    66   33   34 2    
    67   33   35 1    
    68   35   36 1    
    69   35   37 1    
    70   35   97 1    
    71   36   98 1    
    72   36   99 1    
    73   36  100 1    
    74   37   38 am   BACKBONE|DICT|INTERRES
    75   37  101 1    
    76   38   39 2    
    77   38   40 1    
    78   40   41 1    
    79   40   42 1    
    80   40  102 1    
    81   41  103 1    
    82   41  104 1    
    83   41  105 1    
    84   42   43 am   BACKBONE|DICT|INTERRES
    85   42  106 1    
    86   43   44 2    
    87   43   45 1    
    88   45   46 1    
    89   45   49 1    
    90   45  107 1    
    91   46   47 1    
    92   46  108 1    
    93   46  109 1    
    94   47   48 1    
    95   48  110 1    
    96   48  111 1    
    97   49   50 am   BACKBONE|DICT|INTERRES
    98   49  112 1    
    99   50   51 2    
   100   50   52 1    
   101   52   53 1    
   102   52   54 1    
   103   52  113 1    
   104   53  114 1    
   105   53  115 1    
   106   53  116 1    
   107   54   55 am   BACKBONE|DICT|INTERRES
   108   54  117 1    
   109   55   56 2    
   110   55   57 1    
   111   57   58 1    
   112   57   59 1    
   113   57  118 1    
   114   58  119 1    
   115   58  120 1    
   116   58  121 1    
   117   59   60 am   BACKBONE|DICT|INTERRES
   118   59  122 1    
   119   60   61 2    
   120   60   62 1    
   121   62   63 1    
   122   62   64 1    
   123   62  123 1    
   124   63  124 1    
   125   63  125 1    
   126   63  126 1    
   127   64   65 am   BACKBONE|DICT|INTERRES
   128   64  127 1    
   129   65   66 2    
@<TRIPOS>SUBSTRUCTURE
     1 UNK         1 GROUP             0       ****    0 ROOT    
