@<TRIPOS>MOLECULE
3R135
127   129    1
SMALL
USER_CHARGES


@<TRIPOS>ATOM
      1 CA        -79.3925   22.1737  -74.4945 C.3       0 UNK        -0.1998 
      2 C         -80.7047   22.7876  -74.0291 C.2       0 UNK         0.4909 
      3 O         -81.6816   22.0604  -73.8482 O.2       0 UNK        -0.5240 
      4 N         -80.7411   24.1145  -73.8398 N.am      1 UNK        -0.4739 
      5 CA        -81.9456   24.8585  -73.4367 C.3       1 UNK         0.0864 
      6 C6        -81.6269   25.9683  -72.3960 C.3       11 UNK        -0.0881 
      7 S7        -80.8142   27.4565  -73.0715 S.3       11 UNK        -0.2682 
      8 C8        -80.6426   28.4986  -71.5917 C.3       11 UNK         0.0289 
      9 C9        -79.1773   28.7336  -71.2629 C.ar      11 UNK        -0.0687 
     10 C10       -78.4855   27.8351  -70.4475 C.ar      11 UNK        -0.0823 
     11 C11       -77.1295   28.0316  -70.1657 C.ar      11 UNK        -0.0830 
     12 C12       -76.4765   29.1564  -70.6772 C.ar      11 UNK        -0.1021 
     13 C13       -77.1609   30.0678  -71.4859 C.ar      11 UNK        -0.0753 
     14 C14       -78.5104   29.8484  -71.7793 C.ar      11 UNK        -0.0933 
     15 C15       -76.4496   31.2941  -72.0375 C.3       11 UNK         0.0166 
     16 S16       -75.4771   30.8967  -73.5226 S.3       11 UNK        -0.2615 
     17 C17       -73.9115   30.2940  -72.7996 C.3       11 UNK        -0.0865 
     18 CA        -72.7243   30.4550  -73.7882 C.3       10 UNK         0.0862 
     19 C         -71.3352   30.2790  -73.1056 C.2       10 UNK         0.5551 
     20 N         -70.3370   29.7079  -73.7714 N.am      10 UNK        -0.7319 
     21 O         -71.1479   30.6792  -71.9593 O.2       10 UNK        -0.5018 
     22 N         -72.8845   29.5714  -74.9527 N.am      10 UNK        -0.4509 
     23 C         -72.9316   29.9578  -76.2310 C.2       10 UNK         0.4899 
     24 O         -72.9120   31.1327  -76.6023 O.2       10 UNK        -0.4839 
     25 CA        -72.9931   28.8165  -77.2655 C.3       9 UNK         0.0222 
     26 CB        -72.6947   29.2929  -78.7031 C.3       9 UNK        -0.1966 
     27 N         -72.1436   27.6683  -76.9151 N.am      9 UNK        -0.4218 
     28 C         -70.8089   27.6709  -76.7479 C.2       9 UNK         0.5020 
     29 O         -70.1225   28.6937  -76.7537 O.2       9 UNK        -0.5274 
     30 CA        -70.1050   26.3184  -76.5078 C.3       8 UNK         0.0270 
     31 CB        -69.6013   26.2277  -75.0571 C.3       8 UNK        -0.1976 
     32 N         -70.9422   25.1502  -76.7886 N.am      8 UNK        -0.4313 
     33 C         -71.4204   24.7914  -77.9879 C.2       8 UNK         0.5041 
     34 O         -71.0896   25.3347  -79.0423 O.2       8 UNK        -0.5577 
     35 CA        -72.4713   23.6620  -78.0204 C.3       7 UNK         0.0284 
     36 CB        -71.9019   22.4169  -78.7216 C.3       7 UNK        -0.1958 
     37 N         -73.0062   23.2662  -76.7089 N.am      7 UNK        -0.4454 
     38 C         -73.6925   24.0444  -75.8601 C.2       7 UNK         0.5089 
     39 O         -73.9341   25.2395  -76.0546 O.2       7 UNK        -0.5125 
     40 CA        -74.1067   23.3796  -74.5435 C.3       6 UNK         0.0408 
     41 CB        -72.9003   23.2421  -73.5951 C.3       6 UNK        -0.1791 
     42 N         -75.1482   24.1682  -73.8925 N.am      6 UNK        -0.4762 
     43 C         -76.0724   23.6773  -73.0566 C.2       6 UNK         0.5007 
     44 O         -76.1559   22.4814  -72.7725 O.2       6 UNK        -0.5032 
     45 CA        -77.0758   24.6627  -72.4185 C.3       5 UNK         0.0783 
     46 C46       -76.8944   24.7399  -70.8795 C.3       11 UNK        -0.0857 
     47 S47       -75.5041   25.7917  -70.3268 S.3       11 UNK        -0.2512 
     48 C48       -76.3644   27.0347  -69.3082 C.3       11 UNK         0.0225 
     49 N         -77.0786   25.9855  -73.0575 N.am      5 UNK        -0.4615 
     50 C         -77.6850   26.2597  -74.2167 C.2       4 UNK         0.5053 
     51 O         -78.3582   25.4368  -74.8444 O.2       4 UNK        -0.5105 
     52 CA        -77.5116   27.6769  -74.7744 C.3       4 UNK         0.0263 
     53 CB        -76.1165   27.8565  -75.3916 C.3       4 UNK        -0.1981 
     54 N         -78.5243   27.8773  -75.8050 N.am      4 UNK        -0.4224 
     55 C         -79.2611   28.9790  -75.9904 C.2       3 UNK         0.4895 
     56 O         -79.0857   30.0425  -75.3963 O.2       3 UNK        -0.5091 
     57 CA        -80.4146   28.8561  -76.9948 C.3       3 UNK         0.0250 
     58 CB        -79.8918   29.0460  -78.4339 C.3       3 UNK        -0.1996 
     59 N         -81.0912   27.5647  -76.8330 N.am      3 UNK        -0.4254 
     60 C         -82.2386   27.1885  -77.4127 C.2       2 UNK         0.5004 
     61 O         -82.8961   27.9070  -78.1663 O.2       2 UNK        -0.5226 
     62 CA        -82.7386   25.7626  -77.1149 C.3       2 UNK         0.0269 
     63 CB        -82.3699   24.8182  -78.2712 C.3       2 UNK        -0.1926 
     64 N         -82.1892   25.2208  -75.8685 N.am      2 UNK        -0.4687 
     65 C         -82.7378   25.3885  -74.6556 C.2       1 UNK         0.5165 
     66 O         -83.8197   25.9498  -74.4752 O.2       1 UNK        -0.5079 
     67 H67       -79.5807   21.4161  -75.2548 H         1 UNK         0.0900 
     68 H68       -78.7207   22.9134  -74.9258 H         1 UNK         0.0900 
     69 H69       -78.8839   21.6952  -73.6578 H         1 UNK         0.0900 
     70 H70       -79.9187   24.6748  -74.0516 H         1 UNK         0.2959 
     71 H71       -82.6268   24.1668  -72.9358 H         1 UNK         0.1079 
     72 H72       -82.5532   26.2875  -71.9144 H         1 UNK         0.0837 
     73 H73       -81.0043   25.5610  -71.5977 H         1 UNK         0.0837 
     74 H74       -81.1437   29.4506  -71.7728 H         1 UNK         0.0685 
     75 H75       -81.1518   28.0449  -70.7401 H         1 UNK         0.0685 
     76 H76       -79.0056   26.9774  -70.0453 H         1 UNK         0.1434 
     77 H77       -75.4320   29.3189  -70.4499 H         1 UNK         0.1329 
     78 H78       -79.0408   30.5405  -72.4195 H         1 UNK         0.1335 
     79 H79       -75.8132   31.7401  -71.2720 H         1 UNK         0.0680 
     80 H80       -77.1808   32.0596  -72.3019 H         1 UNK         0.0680 
     81 H81       -73.7239   30.8557  -71.8830 H         1 UNK         0.1032 
     82 H82       -74.0289   29.2506  -72.5030 H         1 UNK         0.1032 
     83 H83       -72.7238   31.4948  -74.1199 H         1 UNK         0.0461 
     84 H84       -70.4443   29.4392  -74.7408 H         1 UNK         0.3453 
     85 H85       -69.4421   29.6098  -73.3191 H         1 UNK         0.3453 
     86 H86       -72.8709   28.5821  -74.7546 H         1 UNK         0.2984 
     87 H87       -74.0186   28.4478  -77.2550 H         1 UNK         0.0554 
     88 H88       -73.4086   30.0542  -79.0199 H         1 UNK         0.0847 
     89 H89       -72.7623   28.4704  -79.4154 H         1 UNK         0.0847 
     90 H90       -71.6978   29.7271  -78.7867 H         1 UNK         0.0847 
     91 H91       -72.6296   26.7826  -76.8189 H         1 UNK         0.3141 
     92 H92       -69.2429   26.2804  -77.1769 H         1 UNK         0.0743 
     93 H93       -70.4226   26.2637  -74.3400 H         1 UNK         0.0784 
     94 H94       -69.0440   25.3064  -74.8859 H         1 UNK         0.0784 
     95 H95       -68.9298   27.0553  -74.8236 H         1 UNK         0.0784 
     96 H96       -71.2680   24.6295  -75.9884 H         1 UNK         0.3213 
     97 H97       -73.3096   24.0342  -78.6132 H         1 UNK         0.0855 
     98 H98       -71.0706   21.9843  -78.1636 H         1 UNK         0.0814 
     99 H99       -71.5313   22.6630  -79.7179 H         1 UNK         0.0814 
    100 H100      -72.6629   21.6462  -78.8457 H         1 UNK         0.0814 
    101 H101      -72.8473   22.3041  -76.4435 H         1 UNK         0.3105 
    102 H102      -74.4981   22.3882  -74.7816 H         1 UNK         0.0547 
    103 H103      -72.1027   22.6502  -74.0454 H         1 UNK         0.0837 
    104 H104      -72.4808   24.2147  -73.3342 H         1 UNK         0.0837 
    105 H105      -73.1810   22.7432  -72.6673 H         1 UNK         0.0837 
    106 H106      -75.1658   25.1473  -74.1458 H         1 UNK         0.3020 
    107 H107      -78.0564   24.2135  -72.5873 H         1 UNK         0.1245 
    108 H108      -76.7571   23.7450  -70.4510 H         1 UNK         0.0781 
    109 H109      -77.8203   25.0982  -70.4332 H         1 UNK         0.0781 
    110 H110      -75.6263   27.5630  -68.7028 H         1 UNK         0.0836 
    111 H111      -77.0319   26.5385  -68.6018 H         1 UNK         0.0836 
    112 H112      -76.5740   26.7114  -72.5672 H         1 UNK         0.3022 
    113 H113      -77.6524   28.3905  -73.9617 H         1 UNK         0.0747 
    114 H114      -76.0042   28.8558  -75.8121 H         1 UNK         0.0793 
    115 H115      -75.3339   27.7319  -74.6429 H         1 UNK         0.0793 
    116 H116      -75.9313   27.1344  -76.1878 H         1 UNK         0.0793 
    117 H117      -78.7417   27.0378  -76.3248 H         1 UNK         0.3047 
    118 H118      -81.1343   29.6466  -76.7716 H         1 UNK         0.0822 
    119 H119      -80.7061   29.0982  -79.1561 H         1 UNK         0.0807 
    120 H120      -79.2305   28.2324  -78.7339 H         1 UNK         0.0807 
    121 H121      -79.3278   29.9755  -78.5240 H         1 UNK         0.0807 
    122 H122      -80.6864   26.9387  -76.1515 H         1 UNK         0.2946 
    123 H123      -83.8282   25.8066  -77.0448 H         1 UNK         0.1144 
    124 H124      -82.7658   23.8160  -78.1057 H         1 UNK         0.0793 
    125 H125      -81.2899   24.7364  -78.3997 H         1 UNK         0.0793 
    126 H126      -82.7841   25.1766  -79.2147 H         1 UNK         0.0793 
    127 H127      -81.3157   24.7173  -75.9277 H         1 UNK         0.2896 
@<TRIPOS>BOND
     1    1    2 1    
     2    1   67 1    
     3    1   68 1    
     4    1   69 1    
     5    2    3 2    
     6    2    4 am   BACKBONE|DICT|INTERRES
     7    4    5 1    
     8    4   70 1    
     9    5    6 1    
    10    5   65 1    
    11    5   71 1    
    12    6    7 1    
    13    6   72 1    
    14    6   73 1    
    15    7    8 1    
    16    8    9 1    
    17    8   74 1    
    18    8   75 1    
    19    9   10 ar   
    20    9   14 ar   
    21   10   11 ar   
    22   10   76 1    
    23   11   12 ar   
    24   11   48 1    
    25   12   13 ar   
    26   12   77 1    
    27   13   14 ar   
    28   13   15 1    
    29   14   78 1    
    30   15   16 1    
    31   15   79 1    
    32   15   80 1    
    33   16   17 1    
    34   17   18 1    
    35   17   81 1    
    36   17   82 1    
    37   18   19 1    
    38   18   22 1    
    39   18   83 1    
    40   19   20 am   BACKBONE|DICT|INTERRES
    41   19   21 2    
    42   20   84 1    
    43   20   85 1    
    44   22   23 am   BACKBONE|DICT|INTERRES
    45   22   86 1    
    46   23   24 2    
    47   23   25 1    
    48   25   26 1    
    49   25   27 1    
    50   25   87 1    
    51   26   88 1    
    52   26   89 1    
    53   26   90 1    
    54   27   28 am   BACKBONE|DICT|INTERRES
    55   27   91 1    
    56   28   29 2    
    57   28   30 1    
    58   30   31 1    
    59   30   32 1    
    60   30   92 1    
    61   31   93 1    
    62   31   94 1    
    63   31   95 1    
    64   32   33 am   BACKBONE|DICT|INTERRES
    65   32   96 1    
    66   33   34 2    
    67   33   35 1    
    68   35   36 1    
    69   35   37 1    
    70   35   97 1    
    71   36   98 1    
    72   36   99 1    
    73   36  100 1    
    74   37   38 am   BACKBONE|DICT|INTERRES
    75   37  101 1    
    76   38   39 2    
    77   38   40 1    
    78   40   41 1    
    79   40   42 1    
    80   40  102 1    
    81   41  103 1    
    82   41  104 1    
    83   41  105 1    
    84   42   43 am   BACKBONE|DICT|INTERRES
    85   42  106 1    
    86   43   44 2    
    87   43   45 1    
    88   45   46 1    
    89   45   49 1    
    90   45  107 1    
    91   46   47 1    
    92   46  108 1    
    93   46  109 1    
    94   47   48 1    
    95   48  110 1    
    96   48  111 1    
    97   49   50 am   BACKBONE|DICT|INTERRES
    98   49  112 1    
    99   50   51 2    
   100   50   52 1    
   101   52   53 1    
   102   52   54 1    
   103   52  113 1    
   104   53  114 1    
   105   53  115 1    
   106   53  116 1    
   107   54   55 am   BACKBONE|DICT|INTERRES
   108   54  117 1    
   109   55   56 2    
   110   55   57 1    
   111   57   58 1    
   112   57   59 1    
   113   57  118 1    
   114   58  119 1    
   115   58  120 1    
   116   58  121 1    
   117   59   60 am   BACKBONE|DICT|INTERRES
   118   59  122 1    
   119   60   61 2    
   120   60   62 1    
   121   62   63 1    
   122   62   64 1    
   123   62  123 1    
   124   63  124 1    
   125   63  125 1    
   126   63  126 1    
   127   64   65 am   BACKBONE|DICT|INTERRES
   128   64  127 1    
   129   65   66 2    
@<TRIPOS>SUBSTRUCTURE
     1 UNK         1 GROUP             0       ****    0 ROOT    
