@<TRIPOS>MOLECULE
3R135
127   129    1
SMALL
USER_CHARGES


@<TRIPOS>ATOM
      1 CA        -80.7922   25.6049  -71.5757 C.3       0 UNK        -0.1998 
      2 C         -81.5257   26.3417  -72.6846 C.2       0 UNK         0.4909 
      3 O         -82.6939   26.0553  -72.9476 O.2       0 UNK        -0.5240 
      4 N         -80.8409   27.2853  -73.3438 N.am      1 UNK        -0.4739 
      5 CA        -81.3741   28.0802  -74.4632 C.3       1 UNK         0.0864 
      6 C6        -80.7272   29.4866  -74.5439 C.3       11 UNK        -0.0881 
      7 S7        -80.9927   30.4481  -73.0131 S.3       11 UNK        -0.2682 
      8 C8        -79.4253   31.3749  -72.8518 C.3       11 UNK         0.0289 
      9 C9        -78.1653   30.5131  -72.7686 C.ar      11 UNK        -0.0687 
     10 C10       -78.1736   29.2411  -72.1817 C.ar      11 UNK        -0.0823 
     11 C11       -77.0162   28.4579  -72.1579 C.ar      11 UNK        -0.0830 
     12 C12       -75.8301   28.9737  -72.6840 C.ar      11 UNK        -0.1021 
     13 C13       -75.7951   30.2559  -73.2363 C.ar      11 UNK        -0.0753 
     14 C14       -76.9664   31.0155  -73.2847 C.ar      11 UNK        -0.0933 
     15 C15       -74.5021   30.8039  -73.8186 C.3       11 UNK         0.0166 
     16 S16       -73.6226   31.9122  -72.6774 S.3       11 UNK        -0.2615 
     17 C17       -72.9946   30.7706  -71.3978 C.3       11 UNK        -0.0865 
     18 CA        -71.5144   30.3459  -71.6384 C.3       10 UNK         0.0862 
     19 C         -70.8181   29.8073  -70.3475 C.2       10 UNK         0.5551 
     20 N         -69.8416   28.9134  -70.4498 N.am      10 UNK        -0.7319 
     21 O         -71.1369   30.2280  -69.2378 O.2       10 UNK        -0.5018 
     22 N         -71.3424   29.4886  -72.8300 N.am      10 UNK        -0.4509 
     23 C         -71.7972   28.2364  -72.9750 C.2       10 UNK         0.4899 
     24 O         -72.5045   27.6581  -72.1492 O.2       10 UNK        -0.4839 
     25 CA        -71.3938   27.5119  -74.2698 C.3       9 UNK         0.0222 
     26 CB        -71.3484   25.9848  -74.0872 C.3       9 UNK        -0.1966 
     27 N         -72.3157   27.8376  -75.3579 N.am      9 UNK        -0.4218 
     28 C         -72.2167   28.9312  -76.1266 C.2       9 UNK         0.5020 
     29 O         -71.3406   29.7851  -75.9817 O.2       9 UNK        -0.5274 
     30 CA        -73.2593   29.1197  -77.2362 C.3       8 UNK         0.0270 
     31 CB        -72.8642   28.3146  -78.4857 C.3       8 UNK        -0.1976 
     32 N         -74.6030   28.7183  -76.8140 N.am      8 UNK        -0.4313 
     33 C         -75.6999   29.4850  -76.9074 C.2       8 UNK         0.5041 
     34 O         -75.6765   30.6619  -77.2729 O.2       8 UNK        -0.5577 
     35 CA        -77.0555   28.8329  -76.5472 C.3       7 UNK         0.0284 
     36 CB        -78.2319   29.4805  -77.3084 C.3       7 UNK        -0.1958 
     37 N         -77.0573   27.3744  -76.7201 N.am      7 UNK        -0.4454 
     38 C         -76.8230   26.6922  -77.8525 C.2       7 UNK         0.5089 
     39 O         -76.7558   27.2125  -78.9663 O.2       7 UNK        -0.5125 
     40 CA        -76.5807   25.1749  -77.7138 C.3       6 UNK         0.0408 
     41 CB        -75.4909   24.6789  -78.6861 C.3       6 UNK        -0.1791 
     42 N         -76.2744   24.7220  -76.3488 N.am      6 UNK        -0.4762 
     43 C         -75.2542   25.0977  -75.5593 C.2       6 UNK         0.5007 
     44 O         -74.4564   25.9938  -75.8488 O.2       6 UNK        -0.5032 
     45 CA        -75.1066   24.3686  -74.2099 C.3       5 UNK         0.0783 
     46 C46       -75.4328   25.2847  -73.0057 C.3       11 UNK        -0.0857 
     47 S47       -77.1834   25.7812  -72.8491 S.3       11 UNK        -0.2512 
     48 C48       -77.0477   27.0603  -71.5577 C.3       11 UNK         0.0225 
     49 N         -75.8376   23.0955  -74.1763 N.am      5 UNK        -0.4615 
     50 C         -75.3226   21.9426  -74.6284 C.2       4 UNK         0.5053 
     51 O         -74.1828   21.8351  -75.0819 O.2       4 UNK        -0.5105 
     52 CA        -76.2144   20.6922  -74.5662 C.3       4 UNK         0.0263 
     53 CB        -76.1217   20.0345  -73.1796 C.3       4 UNK        -0.1981 
     54 N         -77.6199   20.9368  -74.8957 N.am      4 UNK        -0.4224 
     55 C         -78.0792   21.3517  -76.0849 C.2       3 UNK         0.4895 
     56 O         -77.3544   21.6429  -77.0374 O.2       3 UNK        -0.5091 
     57 CA        -79.6091   21.4360  -76.2611 C.3       3 UNK         0.0250 
     58 CB        -80.4181   21.0775  -74.9913 C.3       3 UNK        -0.1996 
     59 N         -80.0465   22.7344  -76.7862 N.am      3 UNK        -0.4254 
     60 C         -79.8340   23.9340  -76.2277 C.2       2 UNK         0.5004 
     61 O         -79.1343   24.1048  -75.2244 O.2       2 UNK        -0.5226 
     62 CA        -80.5393   25.1458  -76.8656 C.3       2 UNK         0.0269 
     63 CB        -81.8957   24.7706  -77.5122 C.3       2 UNK        -0.1926 
     64 N         -80.7105   26.1160  -75.7888 N.am      2 UNK        -0.4687 
     65 C         -81.2723   27.3299  -75.8124 C.2       1 UNK         0.5165 
     66 O         -81.7034   27.8632  -76.8352 O.2       1 UNK        -0.5079 
     67 H67       -80.1378   24.8419  -71.9975 H         1 UNK         0.0900 
     68 H68       -81.4993   25.1156  -70.9061 H         1 UNK         0.0900 
     69 H69       -80.1906   26.2914  -70.9818 H         1 UNK         0.0900 
     70 H70       -79.8758   27.4607  -73.1046 H         1 UNK         0.2959 
     71 H71       -82.4432   28.2303  -74.2953 H         1 UNK         0.1079 
     72 H72       -79.6600   29.3984  -74.7474 H         1 UNK         0.0837 
     73 H73       -81.1484   30.0615  -75.3710 H         1 UNK         0.0837 
     74 H74       -79.3531   32.0604  -73.6978 H         1 UNK         0.0685 
     75 H75       -79.4794   31.9942  -71.9558 H         1 UNK         0.0685 
     76 H76       -79.0853   28.8565  -71.7481 H         1 UNK         0.1434 
     77 H77       -74.9297   28.3790  -72.6598 H         1 UNK         0.1329 
     78 H78       -76.9413   32.0017  -73.7282 H         1 UNK         0.1335 
     79 H79       -73.8451   29.9873  -74.1058 H         1 UNK         0.0680 
     80 H80       -74.7189   31.3563  -74.7336 H         1 UNK         0.0680 
     81 H81       -73.6426   29.9013  -71.2967 H         1 UNK         0.1032 
     82 H82       -73.0907   31.3092  -70.4537 H         1 UNK         0.1032 
     83 H83       -70.9579   31.2560  -71.8650 H         1 UNK         0.0461 
     84 H84       -69.3884   28.5793  -69.6140 H         1 UNK         0.3453 
     85 H85       -69.5543   28.5715  -71.3523 H         1 UNK         0.3453 
     86 H86       -70.8065   29.8918  -73.5873 H         1 UNK         0.2984 
     87 H87       -70.3859   27.8334  -74.5415 H         1 UNK         0.0554 
     88 H88       -71.0463   25.4817  -75.0059 H         1 UNK         0.0847 
     89 H89       -72.3156   25.5855  -73.7880 H         1 UNK         0.0847 
     90 H90       -70.6313   25.7076  -73.3134 H         1 UNK         0.0847 
     91 H91       -73.0649   27.1716  -75.5294 H         1 UNK         0.3141 
     92 H92       -73.2477   30.1791  -77.5011 H         1 UNK         0.0743 
     93 H93       -71.8686   28.5937  -78.8334 H         1 UNK         0.0784 
     94 H94       -72.8552   27.2416  -78.2894 H         1 UNK         0.0784 
     95 H95       -73.5581   28.4966  -79.3068 H         1 UNK         0.0784 
     96 H96       -74.7096   27.7582  -76.4973 H         1 UNK         0.3213 
     97 H97       -77.2097   29.0098  -75.4823 H         1 UNK         0.0855 
     98 H98       -78.3739   30.5158  -76.9965 H         1 UNK         0.0814 
     99 H99       -79.1671   28.9543  -77.1280 H         1 UNK         0.0814 
    100 H100      -78.0607   29.4876  -78.3853 H         1 UNK         0.0814 
    101 H101      -77.0992   26.8323  -75.8674 H         1 UNK         0.3105 
    102 H102      -77.5148   24.6883  -77.9943 H         1 UNK         0.0547 
    103 H103      -75.7658   24.8780  -79.7225 H         1 UNK         0.0837 
    104 H104      -74.5333   25.1676  -78.5041 H         1 UNK         0.0837 
    105 H105      -75.3418   23.6028  -78.5951 H         1 UNK         0.0837 
    106 H106      -76.9006   24.0147  -75.9829 H         1 UNK         0.3020 
    107 H107      -74.0426   24.1382  -74.1311 H         1 UNK         0.1245 
    108 H108      -74.8085   26.1777  -73.0446 H         1 UNK         0.0781 
    109 H109      -75.1497   24.7755  -72.0831 H         1 UNK         0.0781 
    110 H110      -76.1560   26.8945  -70.9509 H         1 UNK         0.0836 
    111 H111      -77.8913   26.9624  -70.8741 H         1 UNK         0.0836 
    112 H112      -76.7863   23.1236  -73.8277 H         1 UNK         0.3022 
    113 H113      -75.8282   19.9834  -75.3019 H         1 UNK         0.0747 
    114 H114      -76.6623   19.0882  -73.1514 H         1 UNK         0.0793 
    115 H115      -75.0844   19.8197  -72.9183 H         1 UNK         0.0793 
    116 H116      -76.5277   20.6780  -72.3979 H         1 UNK         0.0793 
    117 H117      -78.2950   20.7365  -74.1722 H         1 UNK         0.3047 
    118 H118      -79.8585   20.6985  -77.0256 H         1 UNK         0.0822 
    119 H119      -81.4894   21.1202  -75.1889 H         1 UNK         0.0807 
    120 H120      -80.2130   21.7597  -74.1650 H         1 UNK         0.0807 
    121 H121      -80.2036   20.0628  -74.6532 H         1 UNK         0.0807 
    122 H122      -80.6015   22.6957  -77.6293 H         1 UNK         0.2946 
    123 H123      -79.8774   25.5747  -77.6196 H         1 UNK         0.1144 
    124 H124      -82.4069   25.6398  -77.9239 H         1 UNK         0.0793 
    125 H125      -82.5685   24.3034  -76.7915 H         1 UNK         0.0793 
    126 H126      -81.7664   24.0784  -78.3446 H         1 UNK         0.0793 
    127 H127      -80.3381   25.7829  -74.9066 H         1 UNK         0.2896 
@<TRIPOS>BOND
     1    1    2 1    
     2    1   67 1    
     3    1   68 1    
     4    1   69 1    
     5    2    3 2    
     6    2    4 am   BACKBONE|DICT|INTERRES
     7    4    5 1    
     8    4   70 1    
     9    5    6 1    
    10    5   65 1    
    11    5   71 1    
    12    6    7 1    
    13    6   72 1    
    14    6   73 1    
    15    7    8 1    
    16    8    9 1    
    17    8   74 1    
    18    8   75 1    
    19    9   10 ar   
    20    9   14 ar   
    21   10   11 ar   
    22   10   76 1    
    23   11   12 ar   
    24   11   48 1    
    25   12   13 ar   
    26   12   77 1    
    27   13   14 ar   
    28   13   15 1    
    29   14   78 1    
    30   15   16 1    
    31   15   79 1    
    32   15   80 1    
    33   16   17 1    
    34   17   18 1    
    35   17   81 1    
    36   17   82 1    
    37   18   19 1    
    38   18   22 1    
    39   18   83 1    
    40   19   20 am   BACKBONE|DICT|INTERRES
    41   19   21 2    
    42   20   84 1    
    43   20   85 1    
    44   22   23 am   BACKBONE|DICT|INTERRES
    45   22   86 1    
    46   23   24 2    
    47   23   25 1    
    48   25   26 1    
    49   25   27 1    
    50   25   87 1    
    51   26   88 1    
    52   26   89 1    
    53   26   90 1    
    54   27   28 am   BACKBONE|DICT|INTERRES
    55   27   91 1    
    56   28   29 2    
    57   28   30 1    
    58   30   31 1    
    59   30   32 1    
    60   30   92 1    
    61   31   93 1    
    62   31   94 1    
    63   31   95 1    
    64   32   33 am   BACKBONE|DICT|INTERRES
    65   32   96 1    
    66   33   34 2    
    67   33   35 1    
    68   35   36 1    
    69   35   37 1    
    70   35   97 1    
    71   36   98 1    
    72   36   99 1    
    73   36  100 1    
    74   37   38 am   BACKBONE|DICT|INTERRES
    75   37  101 1    
    76   38   39 2    
    77   38   40 1    
    78   40   41 1    
    79   40   42 1    
    80   40  102 1    
    81   41  103 1    
    82   41  104 1    
    83   41  105 1    
    84   42   43 am   BACKBONE|DICT|INTERRES
    85   42  106 1    
    86   43   44 2    
    87   43   45 1    
    88   45   46 1    
    89   45   49 1    
    90   45  107 1    
    91   46   47 1    
    92   46  108 1    
    93   46  109 1    
    94   47   48 1    
    95   48  110 1    
    96   48  111 1    
    97   49   50 am   BACKBONE|DICT|INTERRES
    98   49  112 1    
    99   50   51 2    
   100   50   52 1    
   101   52   53 1    
   102   52   54 1    
   103   52  113 1    
   104   53  114 1    
   105   53  115 1    
   106   53  116 1    
   107   54   55 am   BACKBONE|DICT|INTERRES
   108   54  117 1    
   109   55   56 2    
   110   55   57 1    
   111   57   58 1    
   112   57   59 1    
   113   57  118 1    
   114   58  119 1    
   115   58  120 1    
   116   58  121 1    
   117   59   60 am   BACKBONE|DICT|INTERRES
   118   59  122 1    
   119   60   61 2    
   120   60   62 1    
   121   62   63 1    
   122   62   64 1    
   123   62  123 1    
   124   63  124 1    
   125   63  125 1    
   126   63  126 1    
   127   64   65 am   BACKBONE|DICT|INTERRES
   128   64  127 1    
   129   65   66 2    
@<TRIPOS>SUBSTRUCTURE
     1 UNK         1 GROUP             0       ****    0 ROOT    
