@<TRIPOS>MOLECULE
3R135
127   129    1
SMALL
USER_CHARGES


@<TRIPOS>ATOM
      1 CA        -83.3303   26.0966  -69.2223 C.3       0 UNK        -0.1998 
      2 C         -83.5495   26.3541  -70.7055 C.2       0 UNK         0.4909 
      3 O         -84.5694   25.9372  -71.2553 O.2       0 UNK        -0.5240 
      4 N         -82.6006   27.0410  -71.3550 N.am      1 UNK        -0.4739 
      5 CA        -82.6359   27.3747  -72.7864 C.3       1 UNK         0.0864 
      6 C6        -81.5870   28.4514  -73.1523 C.3       11 UNK        -0.0881 
      7 S7        -81.8371   30.0220  -72.2527 S.3       11 UNK        -0.2682 
      8 C8        -80.4244   30.0445  -71.0893 C.3       11 UNK         0.0289 
      9 C9        -79.0522   29.9270  -71.7525 C.ar      11 UNK        -0.0687 
     10 C10       -78.7913   30.5160  -72.9961 C.ar      11 UNK        -0.0823 
     11 C11       -77.5495   30.3548  -73.6150 C.ar      11 UNK        -0.0830 
     12 C12       -76.5410   29.6507  -72.9546 C.ar      11 UNK        -0.1021 
     13 C13       -76.7777   29.0712  -71.7076 C.ar      11 UNK        -0.0753 
     14 C14       -78.0349   29.2097  -71.1111 C.ar      11 UNK        -0.0933 
     15 C15       -75.6668   28.2885  -71.0278 C.3       11 UNK         0.0166 
     16 S16       -74.4914   29.4175  -70.2217 S.3       11 UNK        -0.2615 
     17 C17       -72.9285   28.4843  -70.3484 C.3       11 UNK        -0.0865 
     18 CA        -71.9962   29.0652  -71.4440 C.3       10 UNK         0.0862 
     19 C         -70.5792   28.4435  -71.3483 C.2       10 UNK         0.5551 
     20 N         -69.6079   29.1788  -70.8258 N.am      10 UNK        -0.7319 
     21 O         -70.3690   27.2852  -71.7016 O.2       10 UNK        -0.5018 
     22 N         -72.5498   28.8733  -72.7916 N.am      10 UNK        -0.4509 
     23 C         -72.2601   29.6438  -73.8477 C.2       10 UNK         0.4899 
     24 O         -71.5868   30.6739  -73.7830 O.2       10 UNK        -0.4839 
     25 CA        -72.8172   29.1627  -75.2023 C.3       9 UNK         0.0222 
     26 CB        -72.3659   30.0328  -76.3944 C.3       9 UNK        -0.1966 
     27 N         -72.5295   27.7435  -75.4428 N.am      9 UNK        -0.4218 
     28 C         -71.3243   27.1604  -75.5391 C.2       9 UNK         0.5020 
     29 O         -70.2544   27.7696  -75.5100 O.2       9 UNK        -0.5274 
     30 CA        -71.3028   25.6337  -75.6938 C.3       8 UNK         0.0270 
     31 CB        -71.5030   24.9467  -74.3313 C.3       8 UNK        -0.1976 
     32 N         -72.3227   25.1570  -76.6342 N.am      8 UNK        -0.4313 
     33 C         -72.0678   24.3876  -77.7003 C.2       8 UNK         0.5041 
     34 O         -70.9357   24.0366  -78.0378 O.2       8 UNK        -0.5577 
     35 CA        -73.2654   23.8903  -78.5272 C.3       7 UNK         0.0284 
     36 CB        -73.7679   22.5400  -77.9911 C.3       7 UNK        -0.1958 
     37 N         -74.3867   24.8289  -78.6046 N.am      7 UNK        -0.4454 
     38 C         -74.3877   25.9392  -79.3558 C.2       7 UNK         0.5089 
     39 O         -73.4027   26.3587  -79.9635 O.2       7 UNK        -0.5125 
     40 CA        -75.7225   26.6903  -79.4764 C.3       6 UNK         0.0408 
     41 CB        -76.6578   25.9736  -80.4642 C.3       6 UNK        -0.1791 
     42 N         -76.3863   26.8108  -78.1798 N.am      6 UNK        -0.4762 
     43 C         -76.2154   27.8428  -77.3424 C.2       6 UNK         0.5007 
     44 O         -75.5226   28.8259  -77.6050 O.2       6 UNK        -0.5032 
     45 CA        -76.8923   27.7458  -75.9576 C.3       5 UNK         0.0783 
     46 C46       -78.3115   28.3680  -75.9439 C.3       11 UNK        -0.0857 
     47 S47       -78.4054   30.1683  -76.2665 S.3       11 UNK        -0.2512 
     48 C48       -77.3054   30.9117  -75.0104 C.3       11 UNK         0.0225 
     49 N         -76.9204   26.3762  -75.4331 N.am      5 UNK        -0.4615 
     50 C         -75.8325   25.6389  -75.1660 C.2       4 UNK         0.5053 
     51 O         -74.6843   26.0661  -75.2680 O.2       4 UNK        -0.5105 
     52 CA        -76.0365   24.1643  -74.7751 C.3       4 UNK         0.0263 
     53 CB        -76.0574   24.0260  -73.2452 C.3       4 UNK        -0.1981 
     54 N         -77.2503   23.5630  -75.3337 N.am      4 UNK        -0.4224 
     55 C         -77.6057   23.5523  -76.6276 C.2       3 UNK         0.4895 
     56 O         -76.8683   23.9296  -77.5392 O.2       3 UNK        -0.5091 
     57 CA        -79.0469   23.1218  -76.9632 C.3       3 UNK         0.0250 
     58 CB        -79.0482   21.7176  -77.5877 C.3       3 UNK        -0.1996 
     59 N         -79.9916   23.1519  -75.8354 N.am      3 UNK        -0.4254 
     60 C         -80.2725   24.2100  -75.0580 C.2       2 UNK         0.5004 
     61 O         -79.7322   25.3139  -75.1814 O.2       2 UNK        -0.5226 
     62 CA        -81.2656   23.9477  -73.9094 C.3       2 UNK         0.0269 
     63 CB        -80.6659   22.9692  -72.8824 C.3       2 UNK        -0.1926 
     64 N         -81.6429   25.1715  -73.2021 N.am      2 UNK        -0.4687 
     65 C         -82.4444   26.1322  -73.6818 C.2       1 UNK         0.5165 
     66 O         -83.0234   26.0648  -74.7675 O.2       1 UNK        -0.5079 
     67 H67       -83.3033   25.0247  -69.0278 H         1 UNK         0.0900 
     68 H68       -84.1458   26.5279  -68.6424 H         1 UNK         0.0900 
     69 H69       -82.3957   26.5297  -68.8663 H         1 UNK         0.0900 
     70 H70       -81.7962   27.3778  -70.8471 H         1 UNK         0.2959 
     71 H71       -83.6271   27.7761  -73.0102 H         1 UNK         0.1079 
     72 H72       -80.5780   28.0732  -72.9793 H         1 UNK         0.0837 
     73 H73       -81.6361   28.6816  -74.2188 H         1 UNK         0.0837 
     74 H74       -80.4560   30.9761  -70.5232 H         1 UNK         0.0685 
     75 H75       -80.5644   29.2401  -70.3660 H         1 UNK         0.0685 
     76 H76       -79.5661   31.0699  -73.5077 H         1 UNK         0.1434 
     77 H77       -75.5675   29.5412  -73.4100 H         1 UNK         0.1329 
     78 H78       -78.2204   28.7561  -70.1470 H         1 UNK         0.1335 
     79 H79       -76.0720   27.5977  -70.2868 H         1 UNK         0.0680 
     80 H80       -75.1554   27.6776  -71.7731 H         1 UNK         0.0680 
     81 H81       -73.1255   27.4240  -70.5180 H         1 UNK         0.1032 
     82 H82       -72.4436   28.5429  -69.3718 H         1 UNK         0.1032 
     83 H83       -71.9076   30.1386  -71.2607 H         1 UNK         0.0461 
     84 H84       -68.6847   28.7827  -70.7413 H         1 UNK         0.3453 
     85 H85       -69.7754   30.1272  -70.5271 H         1 UNK         0.3453 
     86 H86       -73.0559   28.0149  -72.9443 H         1 UNK         0.2984 
     87 H87       -73.9022   29.2451  -75.1364 H         1 UNK         0.0554 
     88 H88       -72.7975   29.6750  -77.3294 H         1 UNK         0.0847 
     89 H89       -71.2815   30.0421  -76.5065 H         1 UNK         0.0847 
     90 H90       -72.6879   31.0667  -76.2652 H         1 UNK         0.0847 
     91 H91       -73.3462   27.1323  -75.4311 H         1 UNK         0.3141 
     92 H92       -70.3048   25.3717  -76.0517 H         1 UNK         0.0743 
     93 H93       -72.4821   25.1635  -73.9032 H         1 UNK         0.0784 
     94 H94       -71.4092   23.8642  -74.4182 H         1 UNK         0.0784 
     95 H95       -70.7523   25.2799  -73.6134 H         1 UNK         0.0784 
     96 H96       -73.2837   25.4090  -76.4262 H         1 UNK         0.3213 
     97 H97       -72.9038   23.7251  -79.5448 H         1 UNK         0.0855 
     98 H98       -74.1501   22.6233  -76.9746 H         1 UNK         0.0814 
     99 H99       -72.9641   21.8026  -77.9767 H         1 UNK         0.0814 
    100 H100      -74.5656   22.1368  -78.6155 H         1 UNK         0.0814 
    101 H101      -75.2605   24.5353  -78.1718 H         1 UNK         0.3105 
    102 H102      -75.5151   27.6839  -79.8801 H         1 UNK         0.0547 
    103 H103      -76.1884   25.8767  -81.4441 H         1 UNK         0.0837 
    104 H104      -76.9174   24.9693  -80.1270 H         1 UNK         0.0837 
    105 H105      -77.5852   26.5291  -80.6039 H         1 UNK         0.0837 
    106 H106      -76.9113   26.0041  -77.8629 H         1 UNK         0.3020 
    107 H107      -76.2576   28.3115  -75.2794 H         1 UNK         0.1245 
    108 H108      -78.7801   28.1885  -74.9747 H         1 UNK         0.0781 
    109 H109      -78.9507   27.8608  -76.6691 H         1 UNK         0.0781 
    110 H110      -77.4640   31.9908  -74.9972 H         1 UNK         0.0836 
    111 H111      -76.2687   30.7629  -75.3168 H         1 UNK         0.0836 
    112 H112      -77.8396   25.9566  -75.3214 H         1 UNK         0.3022 
    113 H113      -75.1831   23.6035  -75.1574 H         1 UNK         0.0747 
    114 H114      -76.1093   22.9804  -72.9410 H         1 UNK         0.0793 
    115 H115      -75.1519   24.4446  -72.8028 H         1 UNK         0.0793 
    116 H116      -76.9074   24.5484  -72.8037 H         1 UNK         0.0793 
    117 H117      -77.9299   23.2299  -74.6668 H         1 UNK         0.3047 
    118 H118      -79.4166   23.8280  -77.7094 H         1 UNK         0.0822 
    119 H119      -80.0411   21.4402  -77.9420 H         1 UNK         0.0807 
    120 H120      -78.7194   20.9589  -76.8763 H         1 UNK         0.0807 
    121 H121      -78.3770   21.6707  -78.4468 H         1 UNK         0.0807 
    122 H122      -80.4733   22.2841  -75.6468 H         1 UNK         0.2946 
    123 H123      -82.1685   23.5072  -74.3389 H         1 UNK         0.1144 
    124 H124      -81.3637   22.7764  -72.0669 H         1 UNK         0.0793 
    125 H125      -79.7433   23.3557  -72.4469 H         1 UNK         0.0793 
    126 H126      -80.4346   22.0037  -73.3338 H         1 UNK         0.0793 
    127 H127      -81.2056   25.3287  -72.3065 H         1 UNK         0.2896 
@<TRIPOS>BOND
     1    1    2 1    
     2    1   67 1    
     3    1   68 1    
     4    1   69 1    
     5    2    3 2    
     6    2    4 am   BACKBONE|DICT|INTERRES
     7    4    5 1    
     8    4   70 1    
     9    5    6 1    
    10    5   65 1    
    11    5   71 1    
    12    6    7 1    
    13    6   72 1    
    14    6   73 1    
    15    7    8 1    
    16    8    9 1    
    17    8   74 1    
    18    8   75 1    
    19    9   10 ar   
    20    9   14 ar   
    21   10   11 ar   
    22   10   76 1    
    23   11   12 ar   
    24   11   48 1    
    25   12   13 ar   
    26   12   77 1    
    27   13   14 ar   
    28   13   15 1    
    29   14   78 1    
    30   15   16 1    
    31   15   79 1    
    32   15   80 1    
    33   16   17 1    
    34   17   18 1    
    35   17   81 1    
    36   17   82 1    
    37   18   19 1    
    38   18   22 1    
    39   18   83 1    
    40   19   20 am   BACKBONE|DICT|INTERRES
    41   19   21 2    
    42   20   84 1    
    43   20   85 1    
    44   22   23 am   BACKBONE|DICT|INTERRES
    45   22   86 1    
    46   23   24 2    
    47   23   25 1    
    48   25   26 1    
    49   25   27 1    
    50   25   87 1    
    51   26   88 1    
    52   26   89 1    
    53   26   90 1    
    54   27   28 am   BACKBONE|DICT|INTERRES
    55   27   91 1    
    56   28   29 2    
    57   28   30 1    
    58   30   31 1    
    59   30   32 1    
    60   30   92 1    
    61   31   93 1    
    62   31   94 1    
    63   31   95 1    
    64   32   33 am   BACKBONE|DICT|INTERRES
    65   32   96 1    
    66   33   34 2    
    67   33   35 1    
    68   35   36 1    
    69   35   37 1    
    70   35   97 1    
    71   36   98 1    
    72   36   99 1    
    73   36  100 1    
    74   37   38 am   BACKBONE|DICT|INTERRES
    75   37  101 1    
    76   38   39 2    
    77   38   40 1    
    78   40   41 1    
    79   40   42 1    
    80   40  102 1    
    81   41  103 1    
    82   41  104 1    
    83   41  105 1    
    84   42   43 am   BACKBONE|DICT|INTERRES
    85   42  106 1    
    86   43   44 2    
    87   43   45 1    
    88   45   46 1    
    89   45   49 1    
    90   45  107 1    
    91   46   47 1    
    92   46  108 1    
    93   46  109 1    
    94   47   48 1    
    95   48  110 1    
    96   48  111 1    
    97   49   50 am   BACKBONE|DICT|INTERRES
    98   49  112 1    
    99   50   51 2    
   100   50   52 1    
   101   52   53 1    
   102   52   54 1    
   103   52  113 1    
   104   53  114 1    
   105   53  115 1    
   106   53  116 1    
   107   54   55 am   BACKBONE|DICT|INTERRES
   108   54  117 1    
   109   55   56 2    
   110   55   57 1    
   111   57   58 1    
   112   57   59 1    
   113   57  118 1    
   114   58  119 1    
   115   58  120 1    
   116   58  121 1    
   117   59   60 am   BACKBONE|DICT|INTERRES
   118   59  122 1    
   119   60   61 2    
   120   60   62 1    
   121   62   63 1    
   122   62   64 1    
   123   62  123 1    
   124   63  124 1    
   125   63  125 1    
   126   63  126 1    
   127   64   65 am   BACKBONE|DICT|INTERRES
   128   64  127 1    
   129   65   66 2    
@<TRIPOS>SUBSTRUCTURE
     1 UNK         1 GROUP             0       ****    0 ROOT    
