@<TRIPOS>MOLECULE
3R135
127   129    1
SMALL
USER_CHARGES


@<TRIPOS>ATOM
      1 CA        -80.5429   23.4119  -72.0691 C.3       0 UNK        -0.1998 
      2 C         -81.0644   24.6568  -72.7690 C.2       0 UNK         0.4909 
      3 O         -81.0675   24.7152  -74.0012 O.2       0 UNK        -0.5240 
      4 N         -81.5047   25.6434  -71.9778 N.am      1 UNK        -0.4739 
      5 CA        -82.1688   26.9070  -72.3360 C.3       1 UNK         0.0864 
      6 C6        -82.8931   27.5259  -71.1030 C.3       11 UNK        -0.0881 
      7 S7        -81.9765   27.4395  -69.5192 S.3       11 UNK        -0.2682 
      8 C8        -80.9268   28.9353  -69.5540 C.3       11 UNK         0.0289 
      9 C9        -79.5254   28.7253  -70.1336 C.ar      11 UNK        -0.0687 
     10 C10       -78.8380   27.5126  -69.9867 C.ar      11 UNK        -0.0823 
     11 C11       -77.5372   27.3681  -70.4766 C.ar      11 UNK        -0.0830 
     12 C12       -76.9064   28.4531  -71.0844 C.ar      11 UNK        -0.1021 
     13 C13       -77.5849   29.6567  -71.2731 C.ar      11 UNK        -0.0753 
     14 C14       -78.8916   29.7878  -70.7907 C.ar      11 UNK        -0.0933 
     15 C15       -76.8951   30.8167  -71.9765 C.3       11 UNK         0.0166 
     16 S16       -76.9776   30.6751  -73.7943 S.3       11 UNK        -0.2615 
     17 C17       -75.5213   29.6434  -74.2006 C.3       11 UNK        -0.0865 
     18 CA        -74.3205   30.4583  -74.7545 C.3       10 UNK         0.0862 
     19 C         -73.5155   31.1707  -73.6219 C.2       10 UNK         0.5551 
     20 N         -72.3041   30.7383  -73.2882 N.am      10 UNK        -0.7319 
     21 O         -73.9847   32.1516  -73.0517 O.2       10 UNK        -0.5018 
     22 N         -73.4889   29.6363  -75.6500 N.am      10 UNK        -0.4509 
     23 C         -72.5898   30.1476  -76.5043 C.2       10 UNK         0.4899 
     24 O         -72.4840   31.3541  -76.7322 O.2       10 UNK        -0.4839 
     25 CA        -71.6480   29.1600  -77.2237 C.3       9 UNK         0.0222 
     26 CB        -70.3008   29.8074  -77.6088 C.3       9 UNK        -0.1966 
     27 N         -71.4180   27.9008  -76.5031 N.am      9 UNK        -0.4218 
     28 C         -70.9102   27.7359  -75.2693 C.2       9 UNK         0.5020 
     29 O         -70.5885   28.6745  -74.5391 O.2       9 UNK        -0.5274 
     30 CA        -70.7638   26.2932  -74.7427 C.3       8 UNK         0.0270 
     31 CB        -71.2496   26.1786  -73.2854 C.3       8 UNK        -0.1976 
     32 N         -71.5169   25.3433  -75.5639 N.am      8 UNK        -0.4313 
     33 C         -70.9957   24.5031  -76.4696 C.2       8 UNK         0.5041 
     34 O         -69.7867   24.3524  -76.6473 O.2       8 UNK        -0.5577 
     35 CA        -71.9873   23.7182  -77.3549 C.3       7 UNK         0.0284 
     36 CB        -72.2038   22.3035  -76.7943 C.3       7 UNK        -0.1958 
     37 N         -73.2890   24.3775  -77.5049 N.am      7 UNK        -0.4454 
     38 C         -73.4855   25.5790  -78.0695 C.2       7 UNK         0.5089 
     39 O         -72.5992   26.2133  -78.6395 O.2       7 UNK        -0.5125 
     40 CA        -74.8720   26.2240  -77.8888 C.3       6 UNK         0.0408 
     41 CB        -75.7267   26.0233  -79.1481 C.3       6 UNK        -0.1791 
     42 N         -75.5966   25.7151  -76.7199 N.am      6 UNK        -0.4762 
     43 C         -75.1956   25.8201  -75.4433 C.2       6 UNK         0.5007 
     44 O         -74.1956   26.4602  -75.1130 O.2       6 UNK        -0.5032 
     45 CA        -75.9863   25.0411  -74.3666 C.3       5 UNK         0.0783 
     46 C46       -76.3931   25.9468  -73.1819 C.3       11 UNK        -0.0857 
     47 S47       -77.1538   24.9921  -71.8223 S.3       11 UNK        -0.2512 
     48 C48       -76.8108   26.0375  -70.3718 C.3       11 UNK         0.0225 
     49 N         -77.1325   24.3104  -74.9202 N.am      5 UNK        -0.4615 
     50 C         -77.0630   23.1412  -75.5695 C.2       4 UNK         0.5053 
     51 O         -76.0089   22.5428  -75.7840 O.2       4 UNK        -0.5105 
     52 CA        -78.3865   22.5733  -76.1075 C.3       4 UNK         0.0263 
     53 CB        -79.0181   21.6012  -75.1016 C.3       4 UNK        -0.1981 
     54 N         -79.3413   23.6360  -76.4452 N.am      4 UNK        -0.4224 
     55 C         -79.2748   24.3383  -77.5858 C.2       3 UNK         0.4895 
     56 O         -78.4426   24.1312  -78.4687 O.2       3 UNK        -0.5091 
     57 CA        -80.2882   25.4772  -77.7637 C.3       3 UNK         0.0250 
     58 CB        -81.6936   24.9225  -78.0489 C.3       3 UNK        -0.1996 
     59 N         -80.3407   26.3819  -76.6146 N.am      3 UNK        -0.4254 
     60 C         -79.3450   27.1904  -76.2176 C.2       2 UNK         0.5004 
     61 O         -78.2420   27.2366  -76.7559 O.2       2 UNK        -0.5226 
     62 CA        -79.6308   28.1071  -75.0225 C.3       2 UNK         0.0269 
     63 CB        -80.1769   29.4501  -75.5568 C.3       2 UNK        -0.1926 
     64 N         -80.5475   27.4273  -74.1007 N.am      2 UNK        -0.4687 
     65 C         -81.2944   27.9251  -73.1118 C.2       1 UNK         0.5165 
     66 O         -81.3475   29.1225  -72.8309 O.2       1 UNK        -0.5079 
     67 H67       -81.0390   22.5254  -72.4630 H         1 UNK         0.0900 
     68 H68       -79.4720   23.3070  -72.2285 H         1 UNK         0.0900 
     69 H69       -80.7198   23.4455  -70.9943 H         1 UNK         0.0900 
     70 H70       -81.4128   25.5244  -70.9783 H         1 UNK         0.2959 
     71 H71       -82.9519   26.6423  -73.0500 H         1 UNK         0.1079 
     72 H72       -83.2308   28.5482  -71.2830 H         1 UNK         0.0837 
     73 H73       -83.8150   26.9653  -70.9404 H         1 UNK         0.0837 
     74 H74       -80.8120   29.2902  -68.5293 H         1 UNK         0.0685 
     75 H75       -81.4500   29.7267  -70.0929 H         1 UNK         0.0685 
     76 H76       -79.3093   26.6759  -69.4910 H         1 UNK         0.1434 
     77 H77       -75.8881   28.3490  -71.4249 H         1 UNK         0.1329 
     78 H78       -79.4165   30.7242  -70.9222 H         1 UNK         0.1335 
     79 H79       -77.3634   31.7577  -71.6841 H         1 UNK         0.0680 
     80 H80       -75.8576   30.8847  -71.6488 H         1 UNK         0.0680 
     81 H81       -75.8631   28.9343  -74.9567 H         1 UNK         0.1032 
     82 H82       -75.2133   29.0333  -73.3542 H         1 UNK         0.1032 
     83 H83       -74.7328   31.2554  -75.3766 H         1 UNK         0.0461 
     84 H84       -71.8610   29.9680  -73.7788 H         1 UNK         0.3453 
     85 H85       -71.7976   31.2203  -72.5633 H         1 UNK         0.3453 
     86 H86       -73.5164   28.6350  -75.5053 H         1 UNK         0.2984 
     87 H87       -72.1567   28.8883  -78.1494 H         1 UNK         0.0554 
     88 H88       -70.4482   30.6635  -78.2684 H         1 UNK         0.0847 
     89 H89       -69.6587   29.1030  -78.1377 H         1 UNK         0.0847 
     90 H90       -69.7588   30.1624  -76.7315 H         1 UNK         0.0847 
     91 H91       -71.6601   27.0706  -77.0328 H         1 UNK         0.3141 
     92 H92       -69.6993   26.0520  -74.7660 H         1 UNK         0.0743 
     93 H93       -70.6594   26.8134  -72.6232 H         1 UNK         0.0784 
     94 H94       -72.2925   26.4803  -73.1807 H         1 UNK         0.0784 
     95 H95       -71.1575   25.1570  -72.9165 H         1 UNK         0.0784 
     96 H96       -72.5259   25.4333  -75.4994 H         1 UNK         0.3213 
     97 H97       -71.5408   23.6324  -78.3480 H         1 UNK         0.0855 
     98 H98       -72.6757   22.3259  -75.8109 H         1 UNK         0.0814 
     99 H99       -71.2549   21.7754  -76.6894 H         1 UNK         0.0814 
    100 H100      -72.8335   21.7066  -77.4544 H         1 UNK         0.0814 
    101 H101      -74.0823   23.9210  -77.0748 H         1 UNK         0.3105 
    102 H102      -74.7218   27.2957  -77.7428 H         1 UNK         0.0547 
    103 H103      -76.6917   26.5225  -79.0554 H         1 UNK         0.0837 
    104 H104      -75.9145   24.9671  -79.3449 H         1 UNK         0.0837 
    105 H105      -75.2310   26.4370  -80.0273 H         1 UNK         0.0837 
    106 H106      -76.4604   25.2251  -76.9081 H         1 UNK         0.3020 
    107 H107      -75.2825   24.3024  -73.9751 H         1 UNK         0.1245 
    108 H108      -77.0911   26.7213  -73.5034 H         1 UNK         0.0781 
    109 H109      -75.5143   26.4593  -72.7873 H         1 UNK         0.0781 
    110 H110      -75.7349   26.1907  -70.2738 H         1 UNK         0.0836 
    111 H111      -77.1268   25.5094  -69.4709 H         1 UNK         0.0836 
    112 H112      -78.0378   24.7344  -74.7873 H         1 UNK         0.3022 
    113 H113      -78.1558   22.0058  -77.0121 H         1 UNK         0.0747 
    114 H114      -79.9386   21.1672  -75.4924 H         1 UNK         0.0793 
    115 H115      -78.3394   20.7767  -74.8788 H         1 UNK         0.0793 
    116 H116      -79.2515   22.0921  -74.1602 H         1 UNK         0.0793 
    117 H117      -80.0482   23.8726  -75.7569 H         1 UNK         0.3047 
    118 H118      -79.9734   26.0628  -78.6304 H         1 UNK         0.0822 
    119 H119      -82.3944   25.7231  -78.2866 H         1 UNK         0.0807 
    120 H120      -82.0935   24.3692  -77.1979 H         1 UNK         0.0807 
    121 H121      -81.6795   24.2433  -78.9026 H         1 UNK         0.0807 
    122 H122      -81.2146   26.4181  -76.1097 H         1 UNK         0.2946 
    123 H123      -78.6913   28.2857  -74.4974 H         1 UNK         0.1144 
    124 H124      -81.1951   29.3542  -75.9348 H         1 UNK         0.0793 
    125 H125      -79.5584   29.8291  -76.3720 H         1 UNK         0.0793 
    126 H126      -80.1697   30.2215  -74.7874 H         1 UNK         0.0793 
    127 H127      -80.5918   26.4139  -74.2037 H         1 UNK         0.2896 
@<TRIPOS>BOND
     1    1    2 1    
     2    1   67 1    
     3    1   68 1    
     4    1   69 1    
     5    2    3 2    
     6    2    4 am   BACKBONE|DICT|INTERRES
     7    4    5 1    
     8    4   70 1    
     9    5    6 1    
    10    5   65 1    
    11    5   71 1    
    12    6    7 1    
    13    6   72 1    
    14    6   73 1    
    15    7    8 1    
    16    8    9 1    
    17    8   74 1    
    18    8   75 1    
    19    9   10 ar   
    20    9   14 ar   
    21   10   11 ar   
    22   10   76 1    
    23   11   12 ar   
    24   11   48 1    
    25   12   13 ar   
    26   12   77 1    
    27   13   14 ar   
    28   13   15 1    
    29   14   78 1    
    30   15   16 1    
    31   15   79 1    
    32   15   80 1    
    33   16   17 1    
    34   17   18 1    
    35   17   81 1    
    36   17   82 1    
    37   18   19 1    
    38   18   22 1    
    39   18   83 1    
    40   19   20 am   BACKBONE|DICT|INTERRES
    41   19   21 2    
    42   20   84 1    
    43   20   85 1    
    44   22   23 am   BACKBONE|DICT|INTERRES
    45   22   86 1    
    46   23   24 2    
    47   23   25 1    
    48   25   26 1    
    49   25   27 1    
    50   25   87 1    
    51   26   88 1    
    52   26   89 1    
    53   26   90 1    
    54   27   28 am   BACKBONE|DICT|INTERRES
    55   27   91 1    
    56   28   29 2    
    57   28   30 1    
    58   30   31 1    
    59   30   32 1    
    60   30   92 1    
    61   31   93 1    
    62   31   94 1    
    63   31   95 1    
    64   32   33 am   BACKBONE|DICT|INTERRES
    65   32   96 1    
    66   33   34 2    
    67   33   35 1    
    68   35   36 1    
    69   35   37 1    
    70   35   97 1    
    71   36   98 1    
    72   36   99 1    
    73   36  100 1    
    74   37   38 am   BACKBONE|DICT|INTERRES
    75   37  101 1    
    76   38   39 2    
    77   38   40 1    
    78   40   41 1    
    79   40   42 1    
    80   40  102 1    
    81   41  103 1    
    82   41  104 1    
    83   41  105 1    
    84   42   43 am   BACKBONE|DICT|INTERRES
    85   42  106 1    
    86   43   44 2    
    87   43   45 1    
    88   45   46 1    
    89   45   49 1    
    90   45  107 1    
    91   46   47 1    
    92   46  108 1    
    93   46  109 1    
    94   47   48 1    
    95   48  110 1    
    96   48  111 1    
    97   49   50 am   BACKBONE|DICT|INTERRES
    98   49  112 1    
    99   50   51 2    
   100   50   52 1    
   101   52   53 1    
   102   52   54 1    
   103   52  113 1    
   104   53  114 1    
   105   53  115 1    
   106   53  116 1    
   107   54   55 am   BACKBONE|DICT|INTERRES
   108   54  117 1    
   109   55   56 2    
   110   55   57 1    
   111   57   58 1    
   112   57   59 1    
   113   57  118 1    
   114   58  119 1    
   115   58  120 1    
   116   58  121 1    
   117   59   60 am   BACKBONE|DICT|INTERRES
   118   59  122 1    
   119   60   61 2    
   120   60   62 1    
   121   62   63 1    
   122   62   64 1    
   123   62  123 1    
   124   63  124 1    
   125   63  125 1    
   126   63  126 1    
   127   64   65 am   BACKBONE|DICT|INTERRES
   128   64  127 1    
   129   65   66 2    
@<TRIPOS>SUBSTRUCTURE
     1 UNK         1 GROUP             0       ****    0 ROOT    
