@<TRIPOS>MOLECULE
3R135
127   129    1
SMALL
USER_CHARGES


@<TRIPOS>ATOM
      1 CA        -85.1614   29.5438  -74.6503 C.3       0 UNK        -0.1998 
      2 C         -84.5121   28.5309  -73.7185 C.2       0 UNK         0.4909 
      3 O         -85.2205   27.7404  -73.0939 O.2       0 UNK        -0.5240 
      4 N         -83.1749   28.5627  -73.6211 N.am      1 UNK        -0.4739 
      5 CA        -82.3246   27.6516  -72.8402 C.3       1 UNK         0.0864 
      6 C6        -82.7030   27.6172  -71.3292 C.3       11 UNK        -0.0881 
      7 S7        -81.3344   27.1661  -70.2026 S.3       11 UNK        -0.2682 
      8 C8        -80.6473   28.7842  -69.7243 C.3       11 UNK         0.0289 
      9 C9        -79.4775   29.1690  -70.6169 C.ar      11 UNK        -0.0687 
     10 C10       -79.6951   29.8713  -71.8052 C.ar      11 UNK        -0.0823 
     11 C11       -78.6304   30.1851  -72.6555 C.ar      11 UNK        -0.0830 
     12 C12       -77.3280   29.8543  -72.2644 C.ar      11 UNK        -0.1021 
     13 C13       -77.0955   29.1567  -71.0765 C.ar      11 UNK        -0.0753 
     14 C14       -78.1744   28.8097  -70.2590 C.ar      11 UNK        -0.0933 
     15 C15       -75.6767   28.7696  -70.6945 C.3       11 UNK         0.0166 
     16 S16       -75.0548   27.4512  -71.7803 S.3       11 UNK        -0.2615 
     17 C17       -73.3233   27.3310  -71.2243 C.3       11 UNK        -0.0865 
     18 CA        -72.3940   28.3855  -71.8814 C.3       10 UNK         0.0862 
     19 C         -70.9445   28.2267  -71.3470 C.2       10 UNK         0.5551 
     20 N         -70.5413   29.0467  -70.3864 N.am      10 UNK        -0.7319 
     21 O         -70.2069   27.3343  -71.7600 O.2       10 UNK        -0.5018 
     22 N         -72.4636   28.3332  -73.3482 N.am      10 UNK        -0.4509 
     23 C         -71.8858   29.2049  -74.1865 C.2       10 UNK         0.4899 
     24 O         -71.2754   30.2109  -73.8213 O.2       10 UNK        -0.4839 
     25 CA        -72.0364   28.8941  -75.6879 C.3       9 UNK         0.0222 
     26 CB        -71.0922   29.7169  -76.5905 C.3       9 UNK        -0.1966 
     27 N         -71.9344   27.4554  -75.9546 N.am      9 UNK        -0.4218 
     28 C         -70.8603   26.6687  -75.7845 C.2       9 UNK         0.5020 
     29 O         -69.7300   27.0821  -75.5242 O.2       9 UNK        -0.5274 
     30 CA        -71.0856   25.1541  -75.8995 C.3       8 UNK         0.0270 
     31 CB        -71.3497   24.5521  -74.5076 C.3       8 UNK        -0.1976 
     32 N         -72.2065   24.8256  -76.7864 N.am      8 UNK        -0.4313 
     33 C         -72.0704   24.3038  -78.0118 C.2       8 UNK         0.5041 
     34 O         -70.9840   24.0582  -78.5385 O.2       8 UNK        -0.5577 
     35 CA        -73.3591   23.9743  -78.7806 C.3       7 UNK         0.0284 
     36 CB        -73.9277   22.6185  -78.3299 C.3       7 UNK        -0.1958 
     37 N         -74.3990   24.9996  -78.6734 N.am      7 UNK        -0.4454 
     38 C         -74.3567   26.1882  -79.2923 C.2       7 UNK         0.5089 
     39 O         -73.3806   26.6026  -79.9176 O.2       7 UNK        -0.5125 
     40 CA        -75.6303   27.0454  -79.2339 C.3       6 UNK         0.0408 
     41 CB        -76.6962   26.4914  -80.1939 C.3       6 UNK        -0.1791 
     42 N         -76.1791   27.0957  -77.8799 N.am      6 UNK        -0.4762 
     43 C         -75.9545   28.0881  -77.0065 C.2       6 UNK         0.5007 
     44 O         -75.3001   29.0950  -77.2777 O.2       6 UNK        -0.5032 
     45 CA        -76.5279   27.9151  -75.5789 C.3       5 UNK         0.0783 
     46 C46       -77.9203   28.5884  -75.4403 C.3       11 UNK        -0.0857 
     47 S47       -77.7946   30.4134  -75.3562 S.3       11 UNK        -0.2512 
     48 C48       -78.9212   30.8700  -73.9895 C.3       11 UNK         0.0225 
     49 N         -76.5549   26.5088  -75.1545 N.am      5 UNK        -0.4615 
     50 C         -75.4652   25.7313  -75.0431 C.2       4 UNK         0.5053 
     51 O         -74.3188   26.1350  -75.2390 O.2       4 UNK        -0.5105 
     52 CA        -75.6667   24.2378  -74.7288 C.3       4 UNK         0.0263 
     53 CB        -75.5381   23.9930  -73.2179 C.3       4 UNK        -0.1981 
     54 N         -76.9392   23.6892  -75.2028 N.am      4 UNK        -0.4224 
     55 C         -77.4078   23.7454  -76.4588 C.2       3 UNK         0.4895 
     56 O         -76.7640   24.1917  -77.4087 O.2       3 UNK        -0.5091 
     57 CA        -78.8606   23.2899  -76.6896 C.3       3 UNK         0.0250 
     58 CB        -78.8833   21.8782  -77.2962 C.3       3 UNK        -0.1996 
     59 N         -79.7169   23.3214  -75.4942 N.am      3 UNK        -0.4254 
     60 C         -79.9469   24.3955  -74.7237 C.2       2 UNK         0.5004 
     61 O         -79.4215   25.4982  -74.9095 O.2       2 UNK        -0.5226 
     62 CA        -80.8567   24.1664  -73.5029 C.3       2 UNK         0.0269 
     63 CB        -80.1045   23.3843  -72.4118 C.3       2 UNK        -0.1926 
     64 N         -81.3129   25.4315  -72.9297 N.am      2 UNK        -0.4687 
     65 C         -82.2030   26.2553  -73.4929 C.2       1 UNK         0.5165 
     66 O         -82.8552   25.9603  -74.4989 O.2       1 UNK        -0.5079 
     67 H67       -85.8589   30.1708  -74.0956 H         1 UNK         0.0900 
     68 H68       -84.4262   30.1934  -75.1252 H         1 UNK         0.0900 
     69 H69       -85.7154   29.0291  -75.4349 H         1 UNK         0.0900 
     70 H70       -82.6700   29.2216  -74.1970 H         1 UNK         0.2959 
     71 H71       -81.3246   28.0723  -72.9290 H         1 UNK         0.1079 
     72 H72       -83.0863   28.5901  -71.0189 H         1 UNK         0.0837 
     73 H73       -83.5261   26.9208  -71.1591 H         1 UNK         0.0837 
     74 H74       -80.3131   28.7253  -68.6873 H         1 UNK         0.0685 
     75 H75       -81.4183   29.5555  -69.7460 H         1 UNK         0.0685 
     76 H76       -80.7028   30.1520  -72.0793 H         1 UNK         0.1434 
     77 H77       -76.4891   30.1082  -72.8973 H         1 UNK         0.1329 
     78 H78       -78.0018   28.2577  -69.3451 H         1 UNK         0.1335 
     79 H79       -75.6295   28.4368  -69.6565 H         1 UNK         0.0680 
     80 H80       -75.0324   29.6463  -70.7731 H         1 UNK         0.0680 
     81 H81       -72.9711   26.3227  -71.4516 H         1 UNK         0.1032 
     82 H82       -73.2970   27.4187  -70.1363 H         1 UNK         0.1032 
     83 H83       -72.7527   29.3746  -71.5904 H         1 UNK         0.0461 
     84 H84       -69.6095   28.9453  -70.0153 H         1 UNK         0.3453 
     85 H85       -71.1424   29.7763  -70.0358 H         1 UNK         0.3453 
     86 H86       -72.9574   27.5422  -73.7373 H         1 UNK         0.2984 
     87 H87       -73.0564   29.1758  -75.9461 H         1 UNK         0.0554 
     88 H88       -71.2931   30.7841  -76.4904 H         1 UNK         0.0847 
     89 H89       -71.2255   29.4599  -77.6412 H         1 UNK         0.0847 
     90 H90       -70.0437   29.5619  -76.3355 H         1 UNK         0.0847 
     91 H91       -72.8270   26.9871  -76.0752 H         1 UNK         0.3141 
     92 H92       -70.1592   24.7174  -76.2785 H         1 UNK         0.0743 
     93 H93       -70.5198   24.7604  -73.8305 H         1 UNK         0.0784 
     94 H94       -72.2497   24.9602  -74.0475 H         1 UNK         0.0784 
     95 H95       -71.4615   23.4690  -74.5595 H         1 UNK         0.0784 
     96 H96       -73.1352   25.0322  -76.4371 H         1 UNK         0.3213 
     97 H97       -73.0917   23.8852  -79.8361 H         1 UNK         0.0855 
     98 H98       -74.2393   22.6338  -77.2857 H         1 UNK         0.0814 
     99 H99       -73.1833   21.8282  -78.4364 H         1 UNK         0.0814 
    100 H100      -74.7915   22.3321  -78.9303 H         1 UNK         0.0814 
    101 H101      -75.2611   24.7257  -78.2038 H         1 UNK         0.3105 
    102 H102      -75.3730   28.0512  -79.5730 H         1 UNK         0.0547 
    103 H103      -77.0155   25.4864  -79.9152 H         1 UNK         0.0837 
    104 H104      -76.3133   26.4407  -81.2141 H         1 UNK         0.0837 
    105 H105      -77.5801   27.1290  -80.2121 H         1 UNK         0.0837 
    106 H106      -76.6763   26.2713  -77.5627 H         1 UNK         0.3020 
    107 H107      -75.8369   28.4192  -74.8986 H         1 UNK         0.1245 
    108 H108      -78.4131   28.2293  -74.5358 H         1 UNK         0.0781 
    109 H109      -78.5812   28.3083  -76.2629 H         1 UNK         0.0781 
    110 H110      -79.9407   30.6500  -74.3099 H         1 UNK         0.0836 
    111 H111      -78.8706   31.9496  -73.8433 H         1 UNK         0.0836 
    112 H112      -77.4723   26.1032  -74.9941 H         1 UNK         0.3022 
    113 H113      -74.8685   23.6893  -75.2308 H         1 UNK         0.0747 
    114 H114      -76.3280   24.4972  -72.6591 H         1 UNK         0.0793 
    115 H115      -75.5814   22.9300  -72.9805 H         1 UNK         0.0793 
    116 H116      -74.5853   24.3685  -72.8415 H         1 UNK         0.0793 
    117 H117      -77.5505   23.3061  -74.4977 H         1 UNK         0.3047 
    118 H118      -79.2947   23.9812  -77.4148 H         1 UNK         0.0822 
    119 H119      -79.8943   21.5808  -77.5751 H         1 UNK         0.0807 
    120 H120      -78.4918   21.1335  -76.6019 H         1 UNK         0.0807 
    121 H121      -78.2745   21.8317  -78.2007 H         1 UNK         0.0807 
    122 H122      -80.1754   22.4531  -75.2562 H         1 UNK         0.2946 
    123 H123      -81.7301   23.5933  -73.8228 H         1 UNK         0.1144 
    124 H124      -80.7366   23.2160  -71.5394 H         1 UNK         0.0793 
    125 H125      -79.2109   23.9143  -72.0785 H         1 UNK         0.0793 
    126 H126      -79.7887   22.4039  -72.7703 H         1 UNK         0.0793 
    127 H127      -80.8205   25.7591  -72.1091 H         1 UNK         0.2896 
@<TRIPOS>BOND
     1    1    2 1    
     2    1   67 1    
     3    1   68 1    
     4    1   69 1    
     5    2    3 2    
     6    2    4 am   BACKBONE|DICT|INTERRES
     7    4    5 1    
     8    4   70 1    
     9    5    6 1    
    10    5   65 1    
    11    5   71 1    
    12    6    7 1    
    13    6   72 1    
    14    6   73 1    
    15    7    8 1    
    16    8    9 1    
    17    8   74 1    
    18    8   75 1    
    19    9   10 ar   
    20    9   14 ar   
    21   10   11 ar   
    22   10   76 1    
    23   11   12 ar   
    24   11   48 1    
    25   12   13 ar   
    26   12   77 1    
    27   13   14 ar   
    28   13   15 1    
    29   14   78 1    
    30   15   16 1    
    31   15   79 1    
    32   15   80 1    
    33   16   17 1    
    34   17   18 1    
    35   17   81 1    
    36   17   82 1    
    37   18   19 1    
    38   18   22 1    
    39   18   83 1    
    40   19   20 am   BACKBONE|DICT|INTERRES
    41   19   21 2    
    42   20   84 1    
    43   20   85 1    
    44   22   23 am   BACKBONE|DICT|INTERRES
    45   22   86 1    
    46   23   24 2    
    47   23   25 1    
    48   25   26 1    
    49   25   27 1    
    50   25   87 1    
    51   26   88 1    
    52   26   89 1    
    53   26   90 1    
    54   27   28 am   BACKBONE|DICT|INTERRES
    55   27   91 1    
    56   28   29 2    
    57   28   30 1    
    58   30   31 1    
    59   30   32 1    
    60   30   92 1    
    61   31   93 1    
    62   31   94 1    
    63   31   95 1    
    64   32   33 am   BACKBONE|DICT|INTERRES
    65   32   96 1    
    66   33   34 2    
    67   33   35 1    
    68   35   36 1    
    69   35   37 1    
    70   35   97 1    
    71   36   98 1    
    72   36   99 1    
    73   36  100 1    
    74   37   38 am   BACKBONE|DICT|INTERRES
    75   37  101 1    
    76   38   39 2    
    77   38   40 1    
    78   40   41 1    
    79   40   42 1    
    80   40  102 1    
    81   41  103 1    
    82   41  104 1    
    83   41  105 1    
    84   42   43 am   BACKBONE|DICT|INTERRES
    85   42  106 1    
    86   43   44 2    
    87   43   45 1    
    88   45   46 1    
    89   45   49 1    
    90   45  107 1    
    91   46   47 1    
    92   46  108 1    
    93   46  109 1    
    94   47   48 1    
    95   48  110 1    
    96   48  111 1    
    97   49   50 am   BACKBONE|DICT|INTERRES
    98   49  112 1    
    99   50   51 2    
   100   50   52 1    
   101   52   53 1    
   102   52   54 1    
   103   52  113 1    
   104   53  114 1    
   105   53  115 1    
   106   53  116 1    
   107   54   55 am   BACKBONE|DICT|INTERRES
   108   54  117 1    
   109   55   56 2    
   110   55   57 1    
   111   57   58 1    
   112   57   59 1    
   113   57  118 1    
   114   58  119 1    
   115   58  120 1    
   116   58  121 1    
   117   59   60 am   BACKBONE|DICT|INTERRES
   118   59  122 1    
   119   60   61 2    
   120   60   62 1    
   121   62   63 1    
   122   62   64 1    
   123   62  123 1    
   124   63  124 1    
   125   63  125 1    
   126   63  126 1    
   127   64   65 am   BACKBONE|DICT|INTERRES
   128   64  127 1    
   129   65   66 2    
@<TRIPOS>SUBSTRUCTURE
     1 UNK         1 GROUP             0       ****    0 ROOT    
