@<TRIPOS>MOLECULE
3R135
127   129    1
SMALL
USER_CHARGES


@<TRIPOS>ATOM
      1 CA        -77.7037   28.0109  -76.1584 C.3       0 UNK        -0.1998 
      2 C         -78.8038   27.4016  -75.3057 C.2       0 UNK         0.4909 
      3 O         -78.7668   26.2057  -75.0075 O.2       0 UNK        -0.5240 
      4 N         -79.7855   28.2200  -74.9109 N.am      1 UNK        -0.4739 
      5 CA        -80.9584   27.8091  -74.1343 C.3       1 UNK         0.0864 
      6 C6        -81.7572   29.0191  -73.5918 C.3       11 UNK        -0.0881 
      7 S7        -80.7258   30.2270  -72.6896 S.3       11 UNK        -0.2682 
      8 C8        -80.4777   29.4015  -71.0867 C.3       11 UNK         0.0289 
      9 C9        -79.0130   29.0512  -70.8598 C.ar      11 UNK        -0.0687 
     10 C10       -78.5493   27.7466  -71.0556 C.ar      11 UNK        -0.0823 
     11 C11       -77.2156   27.4134  -70.7927 C.ar      11 UNK        -0.0830 
     12 C12       -76.3412   28.4064  -70.3305 C.ar      11 UNK        -0.1021 
     13 C13       -76.7920   29.7162  -70.1354 C.ar      11 UNK        -0.0753 
     14 C14       -78.1264   30.0315  -70.4066 C.ar      11 UNK        -0.0933 
     15 C15       -75.8616   30.7871  -69.5839 C.3       11 UNK         0.0166 
     16 S16       -75.0191   31.7045  -70.9102 S.3       11 UNK        -0.2615 
     17 C17       -73.3388   31.0006  -70.8043 C.3       11 UNK        -0.0865 
     18 CA        -72.4327   31.4200  -71.9997 C.3       10 UNK         0.0862 
     19 C         -70.9378   31.0279  -71.7776 C.2       10 UNK         0.5551 
     20 N         -70.2097   30.5538  -72.7825 N.am      10 UNK        -0.7319 
     21 O         -70.4133   31.1937  -70.6788 O.2       10 UNK        -0.5018 
     22 N         -72.9866   31.0330  -73.3101 N.am      10 UNK        -0.4509 
     23 C         -73.2024   29.7807  -73.7304 C.2       10 UNK         0.4899 
     24 O         -72.9977   28.7842  -73.0365 O.2       10 UNK        -0.4839 
     25 CA        -73.7106   29.5945  -75.1755 C.3       9 UNK         0.0222 
     26 CB        -73.7201   30.8841  -76.0275 C.3       9 UNK        -0.1966 
     27 N         -72.9789   28.5289  -75.8678 N.am      9 UNK        -0.4218 
     28 C         -71.6508   28.4460  -76.0460 C.2       9 UNK         0.5020 
     29 O         -70.8493   29.3194  -75.7052 O.2       9 UNK        -0.5274 
     30 CA        -71.1220   27.1601  -76.7036 C.3       8 UNK         0.0270 
     31 CB        -70.9926   26.0395  -75.6585 C.3       8 UNK        -0.1976 
     32 N         -71.9525   26.6903  -77.8141 N.am      8 UNK        -0.4313 
     33 C         -72.0922   27.3019  -78.9963 C.2       8 UNK         0.5041 
     34 O         -71.5108   28.3463  -79.2934 O.2       8 UNK        -0.5577 
     35 CA        -73.0332   26.6550  -80.0344 C.3       7 UNK         0.0284 
     36 CB        -72.2643   25.6741  -80.9418 C.3       7 UNK        -0.1958 
     37 N         -74.2479   26.0383  -79.4758 N.am      7 UNK        -0.4454 
     38 C         -74.3568   24.9644  -78.6822 C.2       7 UNK         0.5089 
     39 O         -73.4054   24.2715  -78.3146 O.2       7 UNK        -0.5125 
     40 CA        -75.7698   24.6473  -78.1614 C.3       6 UNK         0.0408 
     41 CB        -76.3211   23.3861  -78.8440 C.3       6 UNK        -0.1791 
     42 N         -75.8103   24.4746  -76.7040 N.am      6 UNK        -0.4762 
     43 C         -75.3376   25.3476  -75.7977 C.2       6 UNK         0.5007 
     44 O         -74.8105   26.4178  -76.1065 O.2       6 UNK        -0.5032 
     45 CA        -75.5052   24.9784  -74.3098 C.3       5 UNK         0.0783 
     46 C46       -75.3345   26.2024  -73.3704 C.3       11 UNK        -0.0857 
     47 S47       -75.1002   25.7278  -71.6274 S.3       11 UNK        -0.2512 
     48 C48       -76.7713   25.9586  -70.9355 C.3       11 UNK         0.0225 
     49 N         -76.8078   24.3371  -74.1326 N.am      5 UNK        -0.4615 
     50 C         -77.0167   23.1122  -73.6392 C.2       4 UNK         0.5053 
     51 O         -76.1224   22.3697  -73.2346 O.2       4 UNK        -0.5105 
     52 CA        -78.4732   22.6215  -73.6123 C.3       4 UNK         0.0263 
     53 CB        -79.1520   22.9829  -72.2811 C.3       4 UNK        -0.1981 
     54 N         -79.2684   23.1616  -74.7156 N.am      4 UNK        -0.4224 
     55 C         -79.1952   22.7563  -75.9903 C.2       3 UNK         0.4895 
     56 O         -78.4310   21.8695  -76.3734 O.2       3 UNK        -0.5091 
     57 CA        -80.1048   23.4730  -77.0128 C.3       3 UNK         0.0250 
     58 CB        -80.6011   22.5252  -78.1248 C.3       3 UNK        -0.1996 
     59 N         -81.2254   24.2109  -76.4104 N.am      3 UNK        -0.4254 
     60 C         -82.2446   23.7290  -75.6809 C.2       2 UNK         0.5004 
     61 O         -82.4256   22.5297  -75.4658 O.2       2 UNK        -0.5226 
     62 CA        -83.1777   24.7778  -75.0349 C.3       2 UNK         0.0269 
     63 CB        -84.1620   24.1546  -74.0267 C.3       2 UNK        -0.1926 
     64 N         -82.4153   25.8368  -74.3585 N.am      2 UNK        -0.4687 
     65 C         -81.8605   26.8867  -74.9779 C.2       1 UNK         0.5165 
     66 O         -82.0105   27.1118  -76.1817 O.2       1 UNK        -0.5079 
     67 H67       -77.9966   28.9766  -76.5695 H         1 UNK         0.0900 
     68 H68       -77.4609   27.3506  -76.9900 H         1 UNK         0.0900 
     69 H69       -76.8064   28.1543  -75.5597 H         1 UNK         0.0900 
     70 H70       -79.7669   29.1923  -75.1821 H         1 UNK         0.2959 
     71 H71       -80.5933   27.2317  -73.2840 H         1 UNK         0.1079 
     72 H72       -82.2372   29.5542  -74.4140 H         1 UNK         0.0837 
     73 H73       -82.5670   28.6875  -72.9388 H         1 UNK         0.0837 
     74 H74       -80.8186   30.0693  -70.2941 H         1 UNK         0.0685 
     75 H75       -81.0999   28.5086  -71.0130 H         1 UNK         0.0685 
     76 H76       -79.2359   26.9799  -71.3849 H         1 UNK         0.1434 
     77 H77       -75.3137   28.1573  -70.1040 H         1 UNK         0.1329 
     78 H78       -78.4819   31.0408  -70.2483 H         1 UNK         0.1335 
     79 H79       -76.4332   31.4962  -68.9830 H         1 UNK         0.0680 
     80 H80       -75.1331   30.3425  -68.9041 H         1 UNK         0.0680 
     81 H81       -73.4058   29.9141  -70.7325 H         1 UNK         0.1032 
     82 H82       -72.9058   31.3378  -69.8607 H         1 UNK         0.1032 
     83 H83       -72.4182   32.5104  -72.0172 H         1 UNK         0.0461 
     84 H84       -70.6236   30.3794  -73.6886 H         1 UNK         0.3453 
     85 H85       -69.2428   30.3214  -72.6212 H         1 UNK         0.3453 
     86 H86       -73.1614   31.7928  -73.9511 H         1 UNK         0.2984 
     87 H87       -74.7401   29.2473  -75.0882 H         1 UNK         0.0554 
     88 H88       -74.0860   30.6815  -77.0342 H         1 UNK         0.0847 
     89 H89       -72.7248   31.3199  -76.1237 H         1 UNK         0.0847 
     90 H90       -74.3797   31.6401  -75.5999 H         1 UNK         0.0847 
     91 H91       -73.5459   27.7210  -76.1228 H         1 UNK         0.3141 
     92 H92       -70.1269   27.3755  -77.0985 H         1 UNK         0.0743 
     93 H93       -71.9626   25.7580  -75.2460 H         1 UNK         0.0784 
     94 H94       -70.5383   25.1464  -76.0878 H         1 UNK         0.0784 
     95 H95       -70.3636   26.3550  -74.8248 H         1 UNK         0.0784 
     96 H96       -72.4524   25.8143  -77.6880 H         1 UNK         0.3213 
     97 H97       -73.3891   27.4687  -80.6688 H         1 UNK         0.0855 
     98 H98       -71.4341   26.1771  -81.4394 H         1 UNK         0.0814 
     99 H99       -72.9082   25.2652  -81.7203 H         1 UNK         0.0814 
    100 H100      -71.8436   24.8392  -80.3808 H         1 UNK         0.0814 
    101 H101      -75.0988   26.5476  -79.6727 H         1 UNK         0.3105 
    102 H102      -76.4300   25.4820  -78.4043 H         1 UNK         0.0547 
    103 H103      -76.2907   23.4830  -79.9302 H         1 UNK         0.0837 
    104 H104      -75.7423   22.4999  -78.5802 H         1 UNK         0.0837 
    105 H105      -77.3586   23.2031  -78.5684 H         1 UNK         0.0837 
    106 H106      -76.2176   23.6146  -76.3645 H         1 UNK         0.3020 
    107 H107      -74.7010   24.2707  -74.0958 H         1 UNK         0.1245 
    108 H108      -76.1737   26.8936  -73.4630 H         1 UNK         0.0781 
    109 H109      -74.4442   26.7684  -73.6423 H         1 UNK         0.0781 
    110 H110      -76.8016   25.4945  -69.9491 H         1 UNK         0.0836 
    111 H111      -77.4754   25.4049  -71.5550 H         1 UNK         0.0836 
    112 H112      -77.6038   24.8840  -74.4583 H         1 UNK         0.3022 
    113 H113      -78.4545   21.5329  -73.7002 H         1 UNK         0.0747 
    114 H114      -80.1298   22.5079  -72.1981 H         1 UNK         0.0793 
    115 H115      -78.5560   22.6458  -71.4316 H         1 UNK         0.0793 
    116 H116      -79.2960   24.0584  -72.1773 H         1 UNK         0.0793 
    117 H117      -79.8785   23.9376  -74.5049 H         1 UNK         0.3047 
    118 H118      -79.4741   24.2295  -77.4825 H         1 UNK         0.0822 
    119 H119      -81.2189   23.0541  -78.8505 H         1 UNK         0.0807 
    120 H120      -81.1887   21.7003  -77.7209 H         1 UNK         0.0807 
    121 H121      -79.7649   22.0885  -78.6722 H         1 UNK         0.0807 
    122 H122      -81.1865   25.2193  -76.5169 H         1 UNK         0.2946 
    123 H123      -83.7669   25.2172  -75.8436 H         1 UNK         0.1144 
    124 H124      -84.7878   23.3999  -74.5053 H         1 UNK         0.0793 
    125 H125      -84.8311   24.9069  -73.6085 H         1 UNK         0.0793 
    126 H126      -83.6414   23.6703  -73.1995 H         1 UNK         0.0793 
    127 H127      -82.2486   25.7029  -73.3711 H         1 UNK         0.2896 
@<TRIPOS>BOND
     1    1    2 1    
     2    1   67 1    
     3    1   68 1    
     4    1   69 1    
     5    2    3 2    
     6    2    4 am   BACKBONE|DICT|INTERRES
     7    4    5 1    
     8    4   70 1    
     9    5    6 1    
    10    5   65 1    
    11    5   71 1    
    12    6    7 1    
    13    6   72 1    
    14    6   73 1    
    15    7    8 1    
    16    8    9 1    
    17    8   74 1    
    18    8   75 1    
    19    9   10 ar   
    20    9   14 ar   
    21   10   11 ar   
    22   10   76 1    
    23   11   12 ar   
    24   11   48 1    
    25   12   13 ar   
    26   12   77 1    
    27   13   14 ar   
    28   13   15 1    
    29   14   78 1    
    30   15   16 1    
    31   15   79 1    
    32   15   80 1    
    33   16   17 1    
    34   17   18 1    
    35   17   81 1    
    36   17   82 1    
    37   18   19 1    
    38   18   22 1    
    39   18   83 1    
    40   19   20 am   BACKBONE|DICT|INTERRES
    41   19   21 2    
    42   20   84 1    
    43   20   85 1    
    44   22   23 am   BACKBONE|DICT|INTERRES
    45   22   86 1    
    46   23   24 2    
    47   23   25 1    
    48   25   26 1    
    49   25   27 1    
    50   25   87 1    
    51   26   88 1    
    52   26   89 1    
    53   26   90 1    
    54   27   28 am   BACKBONE|DICT|INTERRES
    55   27   91 1    
    56   28   29 2    
    57   28   30 1    
    58   30   31 1    
    59   30   32 1    
    60   30   92 1    
    61   31   93 1    
    62   31   94 1    
    63   31   95 1    
    64   32   33 am   BACKBONE|DICT|INTERRES
    65   32   96 1    
    66   33   34 2    
    67   33   35 1    
    68   35   36 1    
    69   35   37 1    
    70   35   97 1    
    71   36   98 1    
    72   36   99 1    
    73   36  100 1    
    74   37   38 am   BACKBONE|DICT|INTERRES
    75   37  101 1    
    76   38   39 2    
    77   38   40 1    
    78   40   41 1    
    79   40   42 1    
    80   40  102 1    
    81   41  103 1    
    82   41  104 1    
    83   41  105 1    
    84   42   43 am   BACKBONE|DICT|INTERRES
    85   42  106 1    
    86   43   44 2    
    87   43   45 1    
    88   45   46 1    
    89   45   49 1    
    90   45  107 1    
    91   46   47 1    
    92   46  108 1    
    93   46  109 1    
    94   47   48 1    
    95   48  110 1    
    96   48  111 1    
    97   49   50 am   BACKBONE|DICT|INTERRES
    98   49  112 1    
    99   50   51 2    
   100   50   52 1    
   101   52   53 1    
   102   52   54 1    
   103   52  113 1    
   104   53  114 1    
   105   53  115 1    
   106   53  116 1    
   107   54   55 am   BACKBONE|DICT|INTERRES
   108   54  117 1    
   109   55   56 2    
   110   55   57 1    
   111   57   58 1    
   112   57   59 1    
   113   57  118 1    
   114   58  119 1    
   115   58  120 1    
   116   58  121 1    
   117   59   60 am   BACKBONE|DICT|INTERRES
   118   59  122 1    
   119   60   61 2    
   120   60   62 1    
   121   62   63 1    
   122   62   64 1    
   123   62  123 1    
   124   63  124 1    
   125   63  125 1    
   126   63  126 1    
   127   64   65 am   BACKBONE|DICT|INTERRES
   128   64  127 1    
   129   65   66 2    
@<TRIPOS>SUBSTRUCTURE
     1 UNK         1 GROUP             0       ****    0 ROOT    
