@<TRIPOS>MOLECULE
3R135
127   129    1
SMALL
USER_CHARGES


@<TRIPOS>ATOM
      1 CA        -84.0929   26.5250  -72.7464 C.3       0 UNK        -0.1998 
      2 C         -82.8867   26.8189  -73.6239 C.2       0 UNK         0.4909 
      3 O         -81.8669   26.1420  -73.5066 O.2       0 UNK        -0.5240 
      4 N         -82.9994   27.8122  -74.5176 N.am      1 UNK        -0.4739 
      5 CA        -81.9408   28.3151  -75.4143 C.3       1 UNK         0.0864 
      6 C6        -80.7410   28.9404  -74.6513 C.3       11 UNK        -0.0881 
      7 S7        -81.1956   30.3128  -73.5425 S.3       11 UNK        -0.2682 
      8 C8        -80.9006   29.5786  -71.8987 C.3       11 UNK         0.0289 
      9 C9        -79.4315   29.2901  -71.5937 C.ar      11 UNK        -0.0687 
     10 C10       -79.0599   28.0413  -71.0836 C.ar      11 UNK        -0.0823 
     11 C11       -77.7392   27.7932  -70.6944 C.ar      11 UNK        -0.0830 
     12 C12       -76.7798   28.7977  -70.8385 C.ar      11 UNK        -0.1021 
     13 C13       -77.1281   30.0423  -71.3720 C.ar      11 UNK        -0.0753 
     14 C14       -78.4561   30.2830  -71.7434 C.ar      11 UNK        -0.0933 
     15 C15       -76.0841   31.1445  -71.4988 C.3       11 UNK         0.0166 
     16 S16       -74.9593   30.8719  -72.9052 S.3       11 UNK        -0.2615 
     17 C17       -73.7530   29.6948  -72.1970 C.3       11 UNK        -0.0865 
     18 CA        -72.3554   29.7842  -72.8672 C.3       10 UNK         0.0862 
     19 C         -71.3043   28.8867  -72.1488 C.2       10 UNK         0.5551 
     20 N         -70.4983   28.0983  -72.8522 N.am      10 UNK        -0.7319 
     21 O         -71.2040   28.9183  -70.9247 O.2       10 UNK        -0.5018 
     22 N         -72.4333   29.5279  -74.3127 N.am      10 UNK        -0.4509 
     23 C         -71.7794   30.2211  -75.2511 C.2       10 UNK         0.4899 
     24 O         -71.0654   31.1962  -75.0092 O.2       10 UNK        -0.4839 
     25 CA        -71.9582   29.7464  -76.7060 C.3       9 UNK         0.0222 
     26 CB        -70.8794   30.3065  -77.6579 C.3       9 UNK        -0.1966 
     27 N         -72.0637   28.2885  -76.8450 N.am      9 UNK        -0.4218 
     28 C         -71.1477   27.3656  -76.5095 C.2       9 UNK         0.5020 
     29 O         -70.0837   27.6451  -75.9540 O.2       9 UNK        -0.5274 
     30 CA        -71.4551   25.8848  -76.8285 C.3       8 UNK         0.0270 
     31 CB        -71.0206   24.9599  -75.6766 C.3       8 UNK        -0.1976 
     32 N         -72.8660   25.6304  -77.1300 N.am      8 UNK        -0.4313 
     33 C         -73.4709   25.8305  -78.3088 C.2       8 UNK         0.5041 
     34 O         -72.8788   26.1712  -79.3327 O.2       8 UNK        -0.5577 
     35 CA        -75.0072   25.7022  -78.3272 C.3       7 UNK         0.0284 
     36 CB        -75.4316   24.2548  -78.6162 C.3       7 UNK        -0.1958 
     37 N         -75.6264   26.1709  -77.0801 N.am      7 UNK        -0.4454 
     38 C         -75.5484   27.4339  -76.6328 C.2       7 UNK         0.5089 
     39 O         -75.0254   28.3487  -77.2688 O.2       7 UNK        -0.5125 
     40 CA        -76.0731   27.7189  -75.2186 C.3       6 UNK         0.0408 
     41 CB        -77.5554   28.0889  -75.2392 C.3       6 UNK        -0.1791 
     42 N         -75.8643   26.5991  -74.3043 N.am      6 UNK        -0.4762 
     43 C         -74.6721   26.2547  -73.8055 C.2       6 UNK         0.5007 
     44 O         -73.6278   26.8524  -74.0658 O.2       6 UNK        -0.5032 
     45 CA        -74.6359   25.0076  -72.9026 C.3       5 UNK         0.0783 
     46 C46       -75.1661   25.3084  -71.4732 C.3       11 UNK        -0.0857 
     47 S47       -76.9874   25.1987  -71.3162 S.3       11 UNK        -0.2512 
     48 C48       -77.3669   26.4595  -70.0642 C.3       11 UNK         0.0225 
     49 N         -75.3168   23.8632  -73.5167 N.am      5 UNK        -0.4615 
     50 C         -75.0034   23.3018  -74.6898 C.2       4 UNK         0.5053 
     51 O         -74.0308   23.6300  -75.3660 O.2       4 UNK        -0.5105 
     52 CA        -75.9554   22.2147  -75.2173 C.3       4 UNK         0.0263 
     53 CB        -75.4951   20.8280  -74.7414 C.3       4 UNK        -0.1981 
     54 N         -77.3647   22.4112  -74.8566 N.am      4 UNK        -0.4224 
     55 C         -78.1122   23.4823  -75.1629 C.2       3 UNK         0.4895 
     56 O         -77.6776   24.4887  -75.7296 O.2       3 UNK        -0.5091 
     57 CA        -79.5808   23.4149  -74.7048 C.3       3 UNK         0.0250 
     58 CB        -79.6981   23.8123  -73.2257 C.3       3 UNK        -0.1996 
     59 N         -80.4857   24.2556  -75.4940 N.am      3 UNK        -0.4254 
     60 C         -80.7665   24.0759  -76.7946 C.2       2 UNK         0.5004 
     61 O         -80.2828   23.1685  -77.4738 O.2       2 UNK        -0.5226 
     62 CA        -81.7894   25.0241  -77.4550 C.3       2 UNK         0.0269 
     63 CB        -83.0651   24.2562  -77.8431 C.3       2 UNK        -0.1926 
     64 N         -82.1688   26.1573  -76.6077 N.am      2 UNK        -0.4687 
     65 C         -81.4537   27.2810  -76.4627 C.2       1 UNK         0.5165 
     66 O         -80.4441   27.5172  -77.1273 O.2       1 UNK        -0.5079 
     67 H67       -84.4253   25.4984  -72.8977 H         1 UNK         0.0900 
     68 H68       -84.9285   27.1897  -72.9645 H         1 UNK         0.0900 
     69 H69       -83.8278   26.6461  -71.6965 H         1 UNK         0.0900 
     70 H70       -83.8735   28.3169  -74.5743 H         1 UNK         0.2959 
     71 H71       -82.4029   29.1112  -76.0002 H         1 UNK         0.1079 
     72 H72       -80.2093   28.1726  -74.0878 H         1 UNK         0.0837 
     73 H73       -80.0237   29.3572  -75.3588 H         1 UNK         0.0837 
     74 H74       -81.5002   28.6726  -71.8064 H         1 UNK         0.0685 
     75 H75       -81.2770   30.2685  -71.1425 H         1 UNK         0.0685 
     76 H76       -79.8060   27.2682  -70.9577 H         1 UNK         0.1434 
     77 H77       -75.7645   28.6148  -70.5182 H         1 UNK         0.1329 
     78 H78       -78.7387   31.2526  -72.1296 H         1 UNK         0.1335 
     79 H79       -76.5747   32.1089  -71.6385 H         1 UNK         0.0680 
     80 H80       -75.5164   31.2312  -70.5714 H         1 UNK         0.0680 
     81 H81       -73.6632   29.8943  -71.1279 H         1 UNK         0.1032 
     82 H82       -74.1577   28.6877  -72.2838 H         1 UNK         0.1032 
     83 H83       -72.0033   30.8053  -72.7103 H         1 UNK         0.0461 
     84 H84       -70.5458   28.0754  -73.8627 H         1 UNK         0.3453 
     85 H85       -69.8206   27.5314  -72.3689 H         1 UNK         0.3453 
     86 H86       -72.9451   28.6910  -74.5716 H         1 UNK         0.2984 
     87 H87       -72.9186   30.1476  -77.0319 H         1 UNK         0.0554 
     88 H88       -71.0449   29.9765  -78.6835 H         1 UNK         0.0847 
     89 H89       -69.8773   29.9941  -77.3621 H         1 UNK         0.0847 
     90 H90       -70.8904   31.3971  -77.6653 H         1 UNK         0.0847 
     91 H91       -72.9394   27.9669  -77.2416 H         1 UNK         0.3141 
     92 H92       -70.8620   25.6240  -77.7072 H         1 UNK         0.0743 
     93 H93       -69.9515   25.0475  -75.4793 H         1 UNK         0.0784 
     94 H94       -71.5447   25.1991  -74.7506 H         1 UNK         0.0784 
     95 H95       -71.2190   23.9140  -75.9116 H         1 UNK         0.0784 
     96 H96       -73.4257   25.2753  -76.3600 H         1 UNK         0.3213 
     97 H97       -75.3847   26.3340  -79.1342 H         1 UNK         0.0855 
     98 H98       -75.1246   23.9573  -79.6196 H         1 UNK         0.0814 
     99 H99       -76.5135   24.1321  -78.5560 H         1 UNK         0.0814 
    100 H100      -74.9708   23.5548  -77.9210 H         1 UNK         0.0814 
    101 H101      -76.1376   25.4925  -76.5216 H         1 UNK         0.3105 
    102 H102      -75.5231   28.5801  -74.8341 H         1 UNK         0.0547 
    103 H103      -78.1801   27.2468  -75.5400 H         1 UNK         0.0837 
    104 H104      -77.8780   28.4213  -74.2525 H         1 UNK         0.0837 
    105 H105      -77.7419   28.9055  -75.9377 H         1 UNK         0.0837 
    106 H106      -76.6685   26.0276  -74.0830 H         1 UNK         0.3020 
    107 H107      -73.5815   24.7359  -72.8126 H         1 UNK         0.1245 
    108 H108      -74.8169   26.2816  -71.1225 H         1 UNK         0.0781 
    109 H109      -74.7436   24.5817  -70.7777 H         1 UNK         0.0781 
    110 H110      -76.5270   26.5733  -69.3771 H         1 UNK         0.0836 
    111 H111      -78.2000   26.1022  -69.4570 H         1 UNK         0.0836 
    112 H112      -76.1433   23.5417  -73.0341 H         1 UNK         0.3022 
    113 H113      -75.9008   22.2307  -76.3063 H         1 UNK         0.0747 
    114 H114      -76.0914   20.0342  -75.1919 H         1 UNK         0.0793 
    115 H115      -74.4558   20.6456  -75.0193 H         1 UNK         0.0793 
    116 H116      -75.5646   20.7283  -73.6574 H         1 UNK         0.0793 
    117 H117      -77.8075   21.6437  -74.3716 H         1 UNK         0.3047 
    118 H118      -79.9208   22.3829  -74.8134 H         1 UNK         0.0822 
    119 H119      -79.0506   23.2030  -72.5943 H         1 UNK         0.0807 
    120 H120      -80.7168   23.6815  -72.8603 H         1 UNK         0.0807 
    121 H121      -79.4225   24.8564  -73.0705 H         1 UNK         0.0807 
    122 H122      -80.9298   25.0214  -74.9984 H         1 UNK         0.2946 
    123 H123      -81.3272   25.4034  -78.3695 H         1 UNK         0.1144 
    124 H124      -82.8346   23.4258  -78.5120 H         1 UNK         0.0793 
    125 H125      -83.7733   24.9007  -78.3642 H         1 UNK         0.0793 
    126 H126      -83.5677   23.8404  -76.9689 H         1 UNK         0.0793 
    127 H127      -82.9820   26.0383  -76.0208 H         1 UNK         0.2896 
@<TRIPOS>BOND
     1    1    2 1    
     2    1   67 1    
     3    1   68 1    
     4    1   69 1    
     5    2    3 2    
     6    2    4 am   BACKBONE|DICT|INTERRES
     7    4    5 1    
     8    4   70 1    
     9    5    6 1    
    10    5   65 1    
    11    5   71 1    
    12    6    7 1    
    13    6   72 1    
    14    6   73 1    
    15    7    8 1    
    16    8    9 1    
    17    8   74 1    
    18    8   75 1    
    19    9   10 ar   
    20    9   14 ar   
    21   10   11 ar   
    22   10   76 1    
    23   11   12 ar   
    24   11   48 1    
    25   12   13 ar   
    26   12   77 1    
    27   13   14 ar   
    28   13   15 1    
    29   14   78 1    
    30   15   16 1    
    31   15   79 1    
    32   15   80 1    
    33   16   17 1    
    34   17   18 1    
    35   17   81 1    
    36   17   82 1    
    37   18   19 1    
    38   18   22 1    
    39   18   83 1    
    40   19   20 am   BACKBONE|DICT|INTERRES
    41   19   21 2    
    42   20   84 1    
    43   20   85 1    
    44   22   23 am   BACKBONE|DICT|INTERRES
    45   22   86 1    
    46   23   24 2    
    47   23   25 1    
    48   25   26 1    
    49   25   27 1    
    50   25   87 1    
    51   26   88 1    
    52   26   89 1    
    53   26   90 1    
    54   27   28 am   BACKBONE|DICT|INTERRES
    55   27   91 1    
    56   28   29 2    
    57   28   30 1    
    58   30   31 1    
    59   30   32 1    
    60   30   92 1    
    61   31   93 1    
    62   31   94 1    
    63   31   95 1    
    64   32   33 am   BACKBONE|DICT|INTERRES
    65   32   96 1    
    66   33   34 2    
    67   33   35 1    
    68   35   36 1    
    69   35   37 1    
    70   35   97 1    
    71   36   98 1    
    72   36   99 1    
    73   36  100 1    
    74   37   38 am   BACKBONE|DICT|INTERRES
    75   37  101 1    
    76   38   39 2    
    77   38   40 1    
    78   40   41 1    
    79   40   42 1    
    80   40  102 1    
    81   41  103 1    
    82   41  104 1    
    83   41  105 1    
    84   42   43 am   BACKBONE|DICT|INTERRES
    85   42  106 1    
    86   43   44 2    
    87   43   45 1    
    88   45   46 1    
    89   45   49 1    
    90   45  107 1    
    91   46   47 1    
    92   46  108 1    
    93   46  109 1    
    94   47   48 1    
    95   48  110 1    
    96   48  111 1    
    97   49   50 am   BACKBONE|DICT|INTERRES
    98   49  112 1    
    99   50   51 2    
   100   50   52 1    
   101   52   53 1    
   102   52   54 1    
   103   52  113 1    
   104   53  114 1    
   105   53  115 1    
   106   53  116 1    
   107   54   55 am   BACKBONE|DICT|INTERRES
   108   54  117 1    
   109   55   56 2    
   110   55   57 1    
   111   57   58 1    
   112   57   59 1    
   113   57  118 1    
   114   58  119 1    
   115   58  120 1    
   116   58  121 1    
   117   59   60 am   BACKBONE|DICT|INTERRES
   118   59  122 1    
   119   60   61 2    
   120   60   62 1    
   121   62   63 1    
   122   62   64 1    
   123   62  123 1    
   124   63  124 1    
   125   63  125 1    
   126   63  126 1    
   127   64   65 am   BACKBONE|DICT|INTERRES
   128   64  127 1    
   129   65   66 2    
@<TRIPOS>SUBSTRUCTURE
     1 UNK         1 GROUP             0       ****    0 ROOT    
