@<TRIPOS>MOLECULE
3R135
127   129    1
SMALL
USER_CHARGES


@<TRIPOS>ATOM
      1 CA        -75.3157   23.1853  -74.6048 C.3       0 UNK        -0.1998 
      2 C         -76.0139   23.5793  -73.3116 C.2       0 UNK         0.4909 
      3 O         -75.8574   22.9000  -72.2971 O.2       0 UNK        -0.5240 
      4 N         -76.7907   24.6667  -73.3429 N.am      1 UNK        -0.4739 
      5 CA        -77.5556   25.1877  -72.2131 C.3       1 UNK         0.0864 
      6 C6        -77.5308   26.7351  -72.1860 C.3       11 UNK        -0.0881 
      7 S7        -78.1348   27.4000  -70.5993 S.3       11 UNK        -0.2682 
      8 C8        -79.4660   28.5117  -71.1597 C.3       11 UNK         0.0289 
      9 C9        -78.9335   29.7219  -71.9190 C.ar      11 UNK        -0.0687 
     10 C10       -79.4341   30.0386  -73.1871 C.ar      11 UNK        -0.0823 
     11 C11       -78.9613   31.1616  -73.8742 C.ar      11 UNK        -0.0830 
     12 C12       -77.9681   31.9568  -73.2951 C.ar      11 UNK        -0.1021 
     13 C13       -77.4581   31.6490  -72.0320 C.ar      11 UNK        -0.0753 
     14 C14       -77.9556   30.5403  -71.3430 C.ar      11 UNK        -0.0933 
     15 C15       -76.3752   32.5194  -71.4127 C.3       11 UNK         0.0166 
     16 S16       -74.7202   32.0568  -72.0123 S.3       11 UNK        -0.2615 
     17 C17       -74.4914   30.4361  -71.2042 C.3       11 UNK        -0.0865 
     18 CA        -73.0145   29.9631  -71.2237 C.3       10 UNK         0.0862 
     19 C         -72.8324   28.6871  -70.3472 C.2       10 UNK         0.5551 
     20 N         -72.4351   27.5420  -70.8902 N.am      10 UNK        -0.7319 
     21 O         -73.0522   28.7430  -69.1398 O.2       10 UNK        -0.5018 
     22 N         -72.5093   29.8409  -72.6000 N.am      10 UNK        -0.4509 
     23 C         -71.2180   29.7876  -72.9502 C.2       10 UNK         0.4899 
     24 O         -70.2881   29.9461  -72.1575 O.2       10 UNK        -0.4839 
     25 CA        -70.9249   29.4924  -74.4386 C.3       9 UNK         0.0222 
     26 CB        -69.5094   28.9184  -74.6599 C.3       9 UNK        -0.1966 
     27 N         -71.9317   28.6295  -75.0779 N.am      9 UNK        -0.4218 
     28 C         -72.3162   27.4046  -74.6813 C.2       9 UNK         0.5020 
     29 O         -71.8610   26.8233  -73.6954 O.2       9 UNK        -0.5274 
     30 CA        -73.4395   26.7327  -75.4864 C.3       8 UNK         0.0270 
     31 CB        -74.7934   27.0465  -74.8367 C.3       8 UNK        -0.1976 
     32 N         -73.4705   27.1200  -76.9005 N.am      8 UNK        -0.4313 
     33 C         -72.5533   26.7332  -77.8014 C.2       8 UNK         0.5041 
     34 O         -71.5859   26.0249  -77.5154 O.2       8 UNK        -0.5577 
     35 CA        -72.7216   27.2261  -79.2549 C.3       7 UNK         0.0284 
     36 CB        -72.1151   26.2488  -80.2856 C.3       7 UNK        -0.1958 
     37 N         -74.1004   27.5757  -79.6198 N.am      7 UNK        -0.4454 
     38 C         -75.1675   26.7649  -79.6511 C.2       7 UNK         0.5089 
     39 O         -75.1488   25.5653  -79.3701 O.2       7 UNK        -0.5125 
     40 CA        -76.4949   27.4313  -80.0512 C.3       6 UNK         0.0408 
     41 CB        -77.1426   26.6955  -81.2363 C.3       6 UNK        -0.1791 
     42 N         -77.4523   27.4967  -78.9451 N.am      6 UNK        -0.4762 
     43 C         -77.2423   28.0449  -77.7367 C.2       6 UNK         0.5007 
     44 O         -76.1683   28.5389  -77.3863 O.2       6 UNK        -0.5032 
     45 CA        -78.4412   28.0287  -76.7574 C.3       5 UNK         0.0783 
     46 C46       -79.3509   29.2721  -76.9289 C.3       11 UNK        -0.0857 
     47 S47       -78.5399   30.8747  -76.5964 S.3       11 UNK        -0.2512 
     48 C48       -79.5346   31.5460  -75.2290 C.3       11 UNK         0.0225 
     49 N         -79.2359   26.8054  -76.9240 N.am      5 UNK        -0.4615 
     50 C         -78.8540   25.5884  -76.5241 C.2       4 UNK         0.5053 
     51 O         -77.8446   25.3687  -75.8524 O.2       4 UNK        -0.5105 
     52 CA        -79.7137   24.4171  -77.0103 C.3       4 UNK         0.0263 
     53 CB        -79.3012   24.0393  -78.4496 C.3       4 UNK        -0.1981 
     54 N         -79.5241   23.2909  -76.1000 N.am      4 UNK        -0.4224 
     55 C         -80.1941   22.1318  -76.1154 C.2       3 UNK         0.4895 
     56 O         -81.0903   21.8602  -76.9153 O.2       3 UNK        -0.5091 
     57 CA        -79.8024   21.0993  -75.0456 C.3       3 UNK         0.0250 
     58 CB        -78.4676   20.4228  -75.3998 C.3       3 UNK        -0.1996 
     59 N         -79.7172   21.6914  -73.7095 N.am      3 UNK        -0.4254 
     60 C         -80.7764   22.0817  -72.9849 C.2       2 UNK         0.5004 
     61 O         -81.9459   21.9278  -73.3383 O.2       2 UNK        -0.5226 
     62 CA        -80.4836   22.7603  -71.6350 C.3       2 UNK         0.0269 
     63 CB        -80.4929   21.7263  -70.4974 C.3       2 UNK        -0.1926 
     64 N         -79.2112   23.4892  -71.6177 N.am      2 UNK        -0.4687 
     65 C         -78.9761   24.6094  -72.3143 C.2       1 UNK         0.5165 
     66 O         -79.8088   25.1457  -73.0478 O.2       1 UNK        -0.5079 
     67 H67       -75.6650   23.7729  -75.4539 H         1 UNK         0.0900 
     68 H68       -75.4903   22.1330  -74.8249 H         1 UNK         0.0900 
     69 H69       -74.2412   23.3370  -74.5075 H         1 UNK         0.0900 
     70 H70       -76.9882   25.1090  -74.2392 H         1 UNK         0.2959 
     71 H71       -77.1050   24.8397  -71.2804 H         1 UNK         0.1079 
     72 H72       -76.5067   27.0911  -72.2962 H         1 UNK         0.0837 
     73 H73       -78.0839   27.1585  -73.0269 H         1 UNK         0.0837 
     74 H74       -80.1704   27.9424  -71.7687 H         1 UNK         0.0685 
     75 H75       -80.0215   28.8616  -70.2888 H         1 UNK         0.0685 
     76 H76       -80.2002   29.4199  -73.6342 H         1 UNK         0.1434 
     77 H77       -77.5908   32.8191  -73.8282 H         1 UNK         0.1329 
     78 H78       -77.5710   30.3030  -70.3605 H         1 UNK         0.1335 
     79 H79       -76.4039   32.4578  -70.3236 H         1 UNK         0.0680 
     80 H80       -76.5597   33.5654  -71.6622 H         1 UNK         0.0680 
     81 H81       -75.1347   29.7023  -71.6940 H         1 UNK         0.1032 
     82 H82       -74.8493   30.5177  -70.1758 H         1 UNK         0.1032 
     83 H83       -72.4208   30.7382  -70.7349 H         1 UNK         0.0461 
     84 H84       -72.2311   27.4664  -71.8817 H         1 UNK         0.3453 
     85 H85       -72.3212   26.7355  -70.2980 H         1 UNK         0.3453 
     86 H86       -73.2072   29.7186  -73.3174 H         1 UNK         0.2984 
     87 H87       -70.9756   30.4535  -74.9520 H         1 UNK         0.0554 
     88 H88       -69.3166   28.7328  -75.7165 H         1 UNK         0.0847 
     89 H89       -69.3671   27.9792  -74.1239 H         1 UNK         0.0847 
     90 H90       -68.7440   29.6120  -74.3097 H         1 UNK         0.0847 
     91 H91       -72.3918   29.0183  -75.8893 H         1 UNK         0.3141 
     92 H92       -73.2804   25.6534  -75.4356 H         1 UNK         0.0743 
     93 H93       -74.8015   26.7183  -73.7975 H         1 UNK         0.0784 
     94 H94       -75.0170   28.1141  -74.8475 H         1 UNK         0.0784 
     95 H95       -75.6021   26.5310  -75.3506 H         1 UNK         0.0784 
     96 H96       -74.2637   27.6749  -77.2084 H         1 UNK         0.3213 
     97 H97       -72.1519   28.1548  -79.3151 H         1 UNK         0.0855 
     98 H98       -71.0477   26.1069  -80.1117 H         1 UNK         0.0814 
     99 H99       -72.2270   26.6234  -81.3030 H         1 UNK         0.0814 
    100 H100      -72.5843   25.2658  -80.2357 H         1 UNK         0.0814 
    101 H101      -74.2525   28.5517  -79.8370 H         1 UNK         0.3105 
    102 H102      -76.2937   28.4574  -80.3655 H         1 UNK         0.0547 
    103 H103      -76.4547   26.6363  -82.0809 H         1 UNK         0.0837 
    104 H104      -77.4226   25.6743  -80.9741 H         1 UNK         0.0837 
    105 H105      -78.0373   27.2108  -81.5857 H         1 UNK         0.0837 
    106 H106      -78.3583   27.0912  -79.1218 H         1 UNK         0.3020 
    107 H107      -78.0324   28.0377  -75.7437 H         1 UNK         0.1245 
    108 H108      -80.2171   29.1727  -76.2736 H         1 UNK         0.0781 
    109 H109      -79.7550   29.3107  -77.9423 H         1 UNK         0.0781 
    110 H110      -80.5755   31.2311  -75.3157 H         1 UNK         0.0836 
    111 H111      -79.5502   32.6334  -75.3185 H         1 UNK         0.0836 
    112 H112      -80.0926   26.8965  -77.4508 H         1 UNK         0.3022 
    113 H113      -80.7649   24.7111  -76.9858 H         1 UNK         0.0747 
    114 H114      -79.9134   23.2323  -78.8511 H         1 UNK         0.0793 
    115 H115      -79.4141   24.8850  -79.1284 H         1 UNK         0.0793 
    116 H116      -78.2583   23.7220  -78.4964 H         1 UNK         0.0793 
    117 H117      -78.8206   23.4559  -75.3922 H         1 UNK         0.3047 
    118 H118      -80.5761   20.3283  -75.0277 H         1 UNK         0.0822 
    119 H119      -78.2145   19.6435  -74.6806 H         1 UNK         0.0807 
    120 H120      -77.6435   21.1355  -75.4271 H         1 UNK         0.0807 
    121 H121      -78.5207   19.9503  -76.3817 H         1 UNK         0.0807 
    122 H122      -78.7959   21.8420  -73.3256 H         1 UNK         0.2946 
    123 H123      -81.2874   23.4779  -71.4537 H         1 UNK         0.1144 
    124 H124      -81.4390   21.1835  -70.4717 H         1 UNK         0.0793 
    125 H125      -80.3702   22.2044  -69.5253 H         1 UNK         0.0793 
    126 H126      -79.6975   20.9891  -70.6132 H         1 UNK         0.0793 
    127 H127      -78.4642   23.0928  -71.0635 H         1 UNK         0.2896 
@<TRIPOS>BOND
     1    1    2 1    
     2    1   67 1    
     3    1   68 1    
     4    1   69 1    
     5    2    3 2    
     6    2    4 am   BACKBONE|DICT|INTERRES
     7    4    5 1    
     8    4   70 1    
     9    5    6 1    
    10    5   65 1    
    11    5   71 1    
    12    6    7 1    
    13    6   72 1    
    14    6   73 1    
    15    7    8 1    
    16    8    9 1    
    17    8   74 1    
    18    8   75 1    
    19    9   10 ar   
    20    9   14 ar   
    21   10   11 ar   
    22   10   76 1    
    23   11   12 ar   
    24   11   48 1    
    25   12   13 ar   
    26   12   77 1    
    27   13   14 ar   
    28   13   15 1    
    29   14   78 1    
    30   15   16 1    
    31   15   79 1    
    32   15   80 1    
    33   16   17 1    
    34   17   18 1    
    35   17   81 1    
    36   17   82 1    
    37   18   19 1    
    38   18   22 1    
    39   18   83 1    
    40   19   20 am   BACKBONE|DICT|INTERRES
    41   19   21 2    
    42   20   84 1    
    43   20   85 1    
    44   22   23 am   BACKBONE|DICT|INTERRES
    45   22   86 1    
    46   23   24 2    
    47   23   25 1    
    48   25   26 1    
    49   25   27 1    
    50   25   87 1    
    51   26   88 1    
    52   26   89 1    
    53   26   90 1    
    54   27   28 am   BACKBONE|DICT|INTERRES
    55   27   91 1    
    56   28   29 2    
    57   28   30 1    
    58   30   31 1    
    59   30   32 1    
    60   30   92 1    
    61   31   93 1    
    62   31   94 1    
    63   31   95 1    
    64   32   33 am   BACKBONE|DICT|INTERRES
    65   32   96 1    
    66   33   34 2    
    67   33   35 1    
    68   35   36 1    
    69   35   37 1    
    70   35   97 1    
    71   36   98 1    
    72   36   99 1    
    73   36  100 1    
    74   37   38 am   BACKBONE|DICT|INTERRES
    75   37  101 1    
    76   38   39 2    
    77   38   40 1    
    78   40   41 1    
    79   40   42 1    
    80   40  102 1    
    81   41  103 1    
    82   41  104 1    
    83   41  105 1    
    84   42   43 am   BACKBONE|DICT|INTERRES
    85   42  106 1    
    86   43   44 2    
    87   43   45 1    
    88   45   46 1    
    89   45   49 1    
    90   45  107 1    
    91   46   47 1    
    92   46  108 1    
    93   46  109 1    
    94   47   48 1    
    95   48  110 1    
    96   48  111 1    
    97   49   50 am   BACKBONE|DICT|INTERRES
    98   49  112 1    
    99   50   51 2    
   100   50   52 1    
   101   52   53 1    
   102   52   54 1    
   103   52  113 1    
   104   53  114 1    
   105   53  115 1    
   106   53  116 1    
   107   54   55 am   BACKBONE|DICT|INTERRES
   108   54  117 1    
   109   55   56 2    
   110   55   57 1    
   111   57   58 1    
   112   57   59 1    
   113   57  118 1    
   114   58  119 1    
   115   58  120 1    
   116   58  121 1    
   117   59   60 am   BACKBONE|DICT|INTERRES
   118   59  122 1    
   119   60   61 2    
   120   60   62 1    
   121   62   63 1    
   122   62   64 1    
   123   62  123 1    
   124   63  124 1    
   125   63  125 1    
   126   63  126 1    
   127   64   65 am   BACKBONE|DICT|INTERRES
   128   64  127 1    
   129   65   66 2    
@<TRIPOS>SUBSTRUCTURE
     1 UNK         1 GROUP             0       ****    0 ROOT    
