@<TRIPOS>MOLECULE
3R135
127   129    1
SMALL
USER_CHARGES


@<TRIPOS>ATOM
      1 CA        -76.4167   23.8705  -73.4296 C.3       0 UNK        -0.1998 
      2 C         -77.8620   23.6614  -73.0102 C.2       0 UNK         0.4909 
      3 O         -78.3534   22.5323  -73.0413 O.2       0 UNK        -0.5240 
      4 N         -78.5389   24.7423  -72.6016 N.am      1 UNK        -0.4739 
      5 CA        -79.9152   24.7542  -72.0923 C.3       1 UNK         0.0864 
      6 C6        -80.3152   26.1544  -71.5661 C.3       11 UNK        -0.0881 
      7 S7        -79.3347   26.6062  -70.0958 S.3       11 UNK        -0.2682 
      8 C8        -79.5637   28.4109  -70.0270 C.3       11 UNK         0.0289 
      9 C9        -78.7140   29.1481  -71.0537 C.ar      11 UNK        -0.0687 
     10 C10       -79.3198   29.9032  -72.0626 C.ar      11 UNK        -0.0823 
     11 C11       -78.5412   30.6182  -72.9782 C.ar      11 UNK        -0.0830 
     12 C12       -77.1470   30.5618  -72.8900 C.ar      11 UNK        -0.1021 
     13 C13       -76.5301   29.8059  -71.8901 C.ar      11 UNK        -0.0753 
     14 C14       -77.3184   29.1076  -70.9705 C.ar      11 UNK        -0.0933 
     15 C15       -75.0140   29.7278  -71.8168 C.3       11 UNK         0.0166 
     16 S16       -74.2720   31.2935  -71.2600 S.3       11 UNK        -0.2615 
     17 C17       -72.5498   30.7703  -70.9454 C.3       11 UNK        -0.0865 
     18 CA        -71.5767   31.0467  -72.1233 C.3       10 UNK         0.0862 
     19 C         -70.1208   30.6791  -71.7058 C.2       10 UNK         0.5551 
     20 N         -69.5363   29.5953  -72.2060 N.am      10 UNK        -0.7319 
     21 O         -69.5153   31.3926  -70.9100 O.2       10 UNK        -0.5018 
     22 N         -72.0278   30.3971  -73.3626 N.am      10 UNK        -0.4509 
     23 C         -71.5232   30.6068  -74.5848 C.2       10 UNK         0.4899 
     24 O         -70.7085   31.4942  -74.8426 O.2       10 UNK        -0.4839 
     25 CA        -72.0069   29.6617  -75.7065 C.3       9 UNK         0.0222 
     26 CB        -70.9038   29.3761  -76.7464 C.3       9 UNK        -0.1966 
     27 N         -72.5971   28.4013  -75.2289 N.am      9 UNK        -0.4218 
     28 C         -72.0176   27.4538  -74.4726 C.2       9 UNK         0.5020 
     29 O         -70.8713   27.5352  -74.0286 O.2       9 UNK        -0.5274 
     30 CA        -72.8720   26.2268  -74.1212 C.3       8 UNK         0.0270 
     31 CB        -73.8136   26.5383  -72.9466 C.3       8 UNK        -0.1976 
     32 N         -73.6541   25.7720  -75.2726 N.am      8 UNK        -0.4313 
     33 C         -73.3127   24.7465  -76.0655 C.2       8 UNK         0.5041 
     34 O         -72.3537   24.0033  -75.8527 O.2       8 UNK        -0.5577 
     35 CA        -74.1703   24.5116  -77.3228 C.3       7 UNK         0.0284 
     36 CB        -75.2219   23.4181  -77.0822 C.3       7 UNK        -0.1958 
     37 N         -74.8270   25.7317  -77.7992 N.am      7 UNK        -0.4454 
     38 C         -74.1788   26.7326  -78.4138 C.2       7 UNK         0.5089 
     39 O         -72.9829   26.6919  -78.7027 O.2       7 UNK        -0.5125 
     40 CA        -74.9788   28.0021  -78.7574 C.3       6 UNK         0.0408 
     41 CB        -75.3426   28.0144  -80.2506 C.3       6 UNK        -0.1791 
     42 N         -76.1984   28.1960  -77.9681 N.am      6 UNK        -0.4762 
     43 C         -76.2530   28.3849  -76.6415 C.2       6 UNK         0.5007 
     44 O         -75.2724   28.3353  -75.8980 O.2       6 UNK        -0.5032 
     45 CA        -77.6534   28.6221  -76.0477 C.3       5 UNK         0.0783 
     46 C46       -78.0649   30.1026  -76.2412 C.3       11 UNK        -0.0857 
     47 S47       -79.6876   30.4829  -75.4971 S.3       11 UNK        -0.2512 
     48 C48       -79.2098   31.4700  -74.0462 C.3       11 UNK         0.0225 
     49 N         -78.6609   27.7067  -76.5961 N.am      5 UNK        -0.4615 
     50 C         -78.6074   26.3699  -76.5784 C.2       4 UNK         0.5053 
     51 O         -77.6506   25.7272  -76.1418 O.2       4 UNK        -0.5105 
     52 CA        -79.8453   25.6626  -77.1476 C.3       4 UNK         0.0263 
     53 CB        -79.9780   25.8623  -78.6728 C.3       4 UNK        -0.1981 
     54 N         -79.9096   24.2528  -76.7514 N.am      4 UNK        -0.4224 
     55 C         -79.2560   23.1916  -77.2515 C.2       3 UNK         0.4895 
     56 O         -78.5220   23.2335  -78.2393 O.2       3 UNK        -0.5091 
     57 CA        -79.4543   21.8360  -76.5373 C.3       3 UNK         0.0250 
     58 CB        -78.1042   21.1750  -76.2090 C.3       3 UNK        -0.1996 
     59 N         -80.2487   21.9398  -75.3076 N.am      3 UNK        -0.4254 
     60 C         -81.5897   21.9691  -75.2646 C.2       2 UNK         0.5004 
     61 O         -82.3058   21.8043  -76.2523 O.2       2 UNK        -0.5226 
     62 CA        -82.2513   22.2747  -73.9068 C.3       2 UNK         0.0269 
     63 CB        -82.7391   20.9770  -73.2427 C.3       2 UNK        -0.1926 
     64 N         -81.3831   22.9971  -72.9700 N.am      2 UNK        -0.4687 
     65 C         -80.9077   24.2378  -73.1529 C.2       1 UNK         0.5165 
     66 O         -81.1848   24.9383  -74.1281 O.2       1 UNK        -0.5079 
     67 H67       -76.0949   23.0839  -74.1096 H         1 UNK         0.0900 
     68 H68       -75.7703   23.8371  -72.5538 H         1 UNK         0.0900 
     69 H69       -76.2832   24.8295  -73.9297 H         1 UNK         0.0900 
     70 H70       -78.0793   25.6412  -72.6068 H         1 UNK         0.2959 
     71 H71       -79.9485   24.0633  -71.2467 H         1 UNK         0.1079 
     72 H72       -81.3697   26.1779  -71.2838 H         1 UNK         0.0837 
     73 H73       -80.1851   26.9103  -72.3435 H         1 UNK         0.0837 
     74 H74       -79.2867   28.7589  -69.0309 H         1 UNK         0.0685 
     75 H75       -80.6226   28.6449  -70.1481 H         1 UNK         0.0685 
     76 H76       -80.3984   29.9475  -72.1297 H         1 UNK         0.1434 
     77 H77       -76.5361   31.1120  -73.5923 H         1 UNK         0.1329 
     78 H78       -76.8490   28.5260  -70.1886 H         1 UNK         0.1335 
     79 H79       -74.7116   28.9218  -71.1465 H         1 UNK         0.0680 
     80 H80       -74.6267   29.4810  -72.8051 H         1 UNK         0.0680 
     81 H81       -72.5305   29.7137  -70.6716 H         1 UNK         0.1032 
     82 H82       -72.2151   31.3073  -70.0554 H         1 UNK         0.1032 
     83 H83       -71.5802   32.1223  -72.3104 H         1 UNK         0.0461 
     84 H84       -70.0258   28.9907  -72.8570 H         1 UNK         0.3453 
     85 H85       -68.5944   29.3714  -71.9275 H         1 UNK         0.3453 
     86 H86       -72.6896   29.6467  -73.2523 H         1 UNK         0.2984 
     87 H87       -72.8123   30.1913  -76.2174 H         1 UNK         0.0554 
     88 H88       -70.5567   30.2969  -77.2167 H         1 UNK         0.0847 
     89 H89       -71.2685   28.7263  -77.5422 H         1 UNK         0.0847 
     90 H90       -70.0364   28.8956  -76.2926 H         1 UNK         0.0847 
     91 H91       -73.5763   28.2781  -75.4873 H         1 UNK         0.3141 
     92 H92       -72.1866   25.4416  -73.7946 H         1 UNK         0.0743 
     93 H93       -73.2852   27.0478  -72.1394 H         1 UNK         0.0784 
     94 H94       -74.6513   27.1660  -73.2505 H         1 UNK         0.0784 
     95 H95       -74.2226   25.6223  -72.5241 H         1 UNK         0.0784 
     96 H96       -74.4424   26.3454  -75.5468 H         1 UNK         0.3213 
     97 H97       -73.4974   24.1569  -78.1070 H         1 UNK         0.0855 
     98 H98       -75.9815   23.7365  -76.3705 H         1 UNK         0.0814 
     99 H99       -74.7640   22.5089  -76.6903 H         1 UNK         0.0814 
    100 H100      -75.7305   23.1503  -78.0085 H         1 UNK         0.0814 
    101 H101      -75.8099   25.8407  -77.5801 H         1 UNK         0.3105 
    102 H102      -74.3246   28.8539  -78.5596 H         1 UNK         0.0547 
    103 H103      -74.4519   27.9040  -80.8710 H         1 UNK         0.0837 
    104 H104      -76.0207   27.1996  -80.5077 H         1 UNK         0.0837 
    105 H105      -75.8180   28.9525  -80.5374 H         1 UNK         0.0837 
    106 H106      -77.0674   28.2198  -78.4824 H         1 UNK         0.3020 
    107 H107      -77.5827   28.4186  -74.9766 H         1 UNK         0.1245 
    108 H108      -78.1272   30.3466  -77.3036 H         1 UNK         0.0781 
    109 H109      -77.3091   30.7731  -75.8292 H         1 UNK         0.0781 
    110 H110      -80.1035   31.9393  -73.6320 H         1 UNK         0.0836 
    111 H111      -78.5574   32.2886  -74.3545 H         1 UNK         0.0836 
    112 H112      -79.4947   28.1514  -76.9521 H         1 UNK         0.3022 
    113 H113      -80.7149   26.1246  -76.6772 H         1 UNK         0.0747 
    114 H114      -80.8125   25.2896  -79.0776 H         1 UNK         0.0793 
    115 H115      -79.0746   25.5626  -79.2050 H         1 UNK         0.0793 
    116 H116      -80.1589   26.9093  -78.9173 H         1 UNK         0.0793 
    117 H117      -80.4424   24.1033  -75.9025 H         1 UNK         0.3047 
    118 H118      -79.9789   21.1848  -77.2396 H         1 UNK         0.0822 
    119 H119      -78.2418   20.2089  -75.7232 H         1 UNK         0.0807 
    120 H120      -77.5013   21.7985  -75.5508 H         1 UNK         0.0807 
    121 H121      -77.5210   21.0008  -77.1142 H         1 UNK         0.0807 
    122 H122      -79.7282   22.0881  -74.4469 H         1 UNK         0.2946 
    123 H123      -83.1198   22.9057  -74.1097 H         1 UNK         0.1144 
    124 H124      -83.4114   20.4285  -73.9042 H         1 UNK         0.0793 
    125 H125      -83.2893   21.1826  -72.3243 H         1 UNK         0.0793 
    126 H126      -81.9096   20.3125  -72.9975 H         1 UNK         0.0793 
    127 H127      -81.0644   22.4746  -72.1659 H         1 UNK         0.2896 
@<TRIPOS>BOND
     1    1    2 1    
     2    1   67 1    
     3    1   68 1    
     4    1   69 1    
     5    2    3 2    
     6    2    4 am   BACKBONE|DICT|INTERRES
     7    4    5 1    
     8    4   70 1    
     9    5    6 1    
    10    5   65 1    
    11    5   71 1    
    12    6    7 1    
    13    6   72 1    
    14    6   73 1    
    15    7    8 1    
    16    8    9 1    
    17    8   74 1    
    18    8   75 1    
    19    9   10 ar   
    20    9   14 ar   
    21   10   11 ar   
    22   10   76 1    
    23   11   12 ar   
    24   11   48 1    
    25   12   13 ar   
    26   12   77 1    
    27   13   14 ar   
    28   13   15 1    
    29   14   78 1    
    30   15   16 1    
    31   15   79 1    
    32   15   80 1    
    33   16   17 1    
    34   17   18 1    
    35   17   81 1    
    36   17   82 1    
    37   18   19 1    
    38   18   22 1    
    39   18   83 1    
    40   19   20 am   BACKBONE|DICT|INTERRES
    41   19   21 2    
    42   20   84 1    
    43   20   85 1    
    44   22   23 am   BACKBONE|DICT|INTERRES
    45   22   86 1    
    46   23   24 2    
    47   23   25 1    
    48   25   26 1    
    49   25   27 1    
    50   25   87 1    
    51   26   88 1    
    52   26   89 1    
    53   26   90 1    
    54   27   28 am   BACKBONE|DICT|INTERRES
    55   27   91 1    
    56   28   29 2    
    57   28   30 1    
    58   30   31 1    
    59   30   32 1    
    60   30   92 1    
    61   31   93 1    
    62   31   94 1    
    63   31   95 1    
    64   32   33 am   BACKBONE|DICT|INTERRES
    65   32   96 1    
    66   33   34 2    
    67   33   35 1    
    68   35   36 1    
    69   35   37 1    
    70   35   97 1    
    71   36   98 1    
    72   36   99 1    
    73   36  100 1    
    74   37   38 am   BACKBONE|DICT|INTERRES
    75   37  101 1    
    76   38   39 2    
    77   38   40 1    
    78   40   41 1    
    79   40   42 1    
    80   40  102 1    
    81   41  103 1    
    82   41  104 1    
    83   41  105 1    
    84   42   43 am   BACKBONE|DICT|INTERRES
    85   42  106 1    
    86   43   44 2    
    87   43   45 1    
    88   45   46 1    
    89   45   49 1    
    90   45  107 1    
    91   46   47 1    
    92   46  108 1    
    93   46  109 1    
    94   47   48 1    
    95   48  110 1    
    96   48  111 1    
    97   49   50 am   BACKBONE|DICT|INTERRES
    98   49  112 1    
    99   50   51 2    
   100   50   52 1    
   101   52   53 1    
   102   52   54 1    
   103   52  113 1    
   104   53  114 1    
   105   53  115 1    
   106   53  116 1    
   107   54   55 am   BACKBONE|DICT|INTERRES
   108   54  117 1    
   109   55   56 2    
   110   55   57 1    
   111   57   58 1    
   112   57   59 1    
   113   57  118 1    
   114   58  119 1    
   115   58  120 1    
   116   58  121 1    
   117   59   60 am   BACKBONE|DICT|INTERRES
   118   59  122 1    
   119   60   61 2    
   120   60   62 1    
   121   62   63 1    
   122   62   64 1    
   123   62  123 1    
   124   63  124 1    
   125   63  125 1    
   126   63  126 1    
   127   64   65 am   BACKBONE|DICT|INTERRES
   128   64  127 1    
   129   65   66 2    
@<TRIPOS>SUBSTRUCTURE
     1 UNK         1 GROUP             0       ****    0 ROOT    
