@<TRIPOS>MOLECULE
3R135
127   129    1
SMALL
USER_CHARGES


@<TRIPOS>ATOM
      1 CA        -85.0244   30.5034  -74.9804 C.3       0 UNK        -0.1998 
      2 C         -83.8010   30.8763  -74.1567 C.2       0 UNK         0.4909 
      3 O         -83.3279   32.0099  -74.2427 O.2       0 UNK        -0.5240 
      4 N         -83.2872   29.9320  -73.3565 N.am      1 UNK        -0.4739 
      5 CA        -82.0936   30.1059  -72.5168 C.3       1 UNK         0.0864 
      6 C6        -82.0284   29.0126  -71.4158 C.3       11 UNK        -0.0881 
      7 S7        -81.1096   29.5571  -69.9356 S.3       11 UNK        -0.2682 
      8 C8        -80.2728   28.0183  -69.4095 C.3       11 UNK         0.0289 
      9 C9        -79.2427   27.4741  -70.3994 C.ar      11 UNK        -0.0687 
     10 C10       -79.0702   26.0901  -70.5204 C.ar      11 UNK        -0.0823 
     11 C11       -78.1290   25.5638  -71.4113 C.ar      11 UNK        -0.0830 
     12 C12       -77.3737   26.4310  -72.2046 C.ar      11 UNK        -0.1021 
     13 C13       -77.5247   27.8135  -72.0857 C.ar      11 UNK        -0.0753 
     14 C14       -78.4449   28.3284  -71.1699 C.ar      11 UNK        -0.0933 
     15 C15       -76.7217   28.7494  -72.9712 C.3       11 UNK         0.0166 
     16 S16       -75.0413   29.0242  -72.3387 S.3       11 UNK        -0.2615 
     17 C17       -74.4289   30.3658  -73.4242 C.3       11 UNK        -0.0865 
     18 CA        -74.8064   30.2571  -74.9292 C.3       10 UNK         0.0862 
     19 C         -74.2768   31.4904  -75.7203 C.2       10 UNK         0.5551 
     20 N         -73.3711   31.3397  -76.6803 N.am      10 UNK        -0.7319 
     21 O         -74.7039   32.6114  -75.4563 O.2       10 UNK        -0.5018 
     22 N         -74.4085   28.9598  -75.4952 N.am      10 UNK        -0.4509 
     23 C         -74.9151   28.4182  -76.6107 C.2       10 UNK         0.4899 
     24 O         -75.8915   28.8770  -77.2053 O.2       10 UNK        -0.4839 
     25 CA        -74.2094   27.1558  -77.1529 C.3       9 UNK         0.0222 
     26 CB        -74.3093   27.0341  -78.6869 C.3       9 UNK        -0.1966 
     27 N         -72.8175   26.9991  -76.7059 N.am      9 UNK        -0.4218 
     28 C         -71.7969   27.8541  -76.8886 C.2       9 UNK         0.5020 
     29 O         -71.9033   28.9110  -77.5123 O.2       9 UNK        -0.5274 
     30 CA        -70.4506   27.5308  -76.2097 C.3       8 UNK         0.0270 
     31 CB        -70.0984   28.6198  -75.1801 C.3       8 UNK        -0.1976 
     32 N         -70.4373   26.2307  -75.5340 N.am      8 UNK        -0.4313 
     33 C         -70.1792   25.0584  -76.1278 C.2       8 UNK         0.5041 
     34 O         -69.8477   24.9452  -77.3083 O.2       8 UNK        -0.5577 
     35 CA        -70.3480   23.7942  -75.2627 C.3       7 UNK         0.0284 
     36 CB        -69.0086   23.4019  -74.6179 C.3       7 UNK        -0.1958 
     37 N         -71.3785   23.9070  -74.2192 N.am      7 UNK        -0.4454 
     38 C         -72.6786   24.1285  -74.4545 C.2       7 UNK         0.5089 
     39 O         -73.1431   24.3404  -75.5762 O.2       7 UNK        -0.5125 
     40 CA        -73.6081   24.1892  -73.2365 C.3       6 UNK         0.0408 
     41 CB        -73.8335   25.6507  -72.8221 C.3       6 UNK        -0.1791 
     42 N         -74.8893   23.5877  -73.5999 N.am      6 UNK        -0.4762 
     43 C         -75.2301   22.3137  -73.3555 C.2       6 UNK         0.5007 
     44 O         -74.5888   21.5646  -72.6175 O.2       6 UNK        -0.5032 
     45 CA        -76.4777   21.7652  -74.0843 C.3       5 UNK         0.0783 
     46 C46       -77.7393   21.7834  -73.1787 C.3       11 UNK        -0.0857 
     47 S47       -78.5686   23.4086  -73.0723 S.3       11 UNK        -0.2512 
     48 C48       -77.9052   24.0631  -71.5128 C.3       11 UNK         0.0225 
     49 N         -76.7021   22.4407  -75.3663 N.am      5 UNK        -0.4615 
     50 C         -75.8979   22.3652  -76.4341 C.2       4 UNK         0.5053 
     51 O         -74.9800   21.5489  -76.5231 O.2       4 UNK        -0.5105 
     52 CA        -76.1350   23.3648  -77.5881 C.3       4 UNK         0.0263 
     53 CB        -76.0936   22.6621  -78.9569 C.3       4 UNK        -0.1981 
     54 N         -77.3750   24.1483  -77.5007 N.am      4 UNK        -0.4224 
     55 C         -77.6410   25.1240  -76.6226 C.2       3 UNK         0.4895 
     56 O         -76.8889   25.4526  -75.7011 O.2       3 UNK        -0.5091 
     57 CA        -79.0022   25.8082  -76.7785 C.3       3 UNK         0.0250 
     58 CB        -80.1295   24.9281  -76.2007 C.3       3 UNK        -0.1996 
     59 N         -78.9568   27.0980  -76.0982 N.am      3 UNK        -0.4254 
     60 C         -79.8649   28.0707  -76.2145 C.2       2 UNK         0.5004 
     61 O         -80.8747   27.9946  -76.9187 O.2       2 UNK        -0.5226 
     62 CA        -79.6326   29.3373  -75.3897 C.3       2 UNK         0.0269 
     63 CB        -79.4361   30.5755  -76.2832 C.3       2 UNK        -0.1926 
     64 N         -80.7864   29.5055  -74.5139 N.am      2 UNK        -0.4687 
     65 C         -80.7912   30.1660  -73.3497 C.2       1 UNK         0.5165 
     66 O         -79.8277   30.8099  -72.9331 O.2       1 UNK        -0.5079 
     67 H67       -85.8558   31.1646  -74.7378 H         1 UNK         0.0900 
     68 H68       -85.3430   29.4774  -74.7973 H         1 UNK         0.0900 
     69 H69       -84.8060   30.6060  -76.0431 H         1 UNK         0.0900 
     70 H70       -83.7248   29.0218  -73.3212 H         1 UNK         0.2959 
     71 H71       -82.1943   31.0771  -72.0260 H         1 UNK         0.1079 
     72 H72       -83.0344   28.7634  -71.0739 H         1 UNK         0.0837 
     73 H73       -81.6115   28.0824  -71.8074 H         1 UNK         0.0837 
     74 H74       -81.0382   27.2670  -69.2085 H         1 UNK         0.0685 
     75 H75       -79.7691   28.2068  -68.4607 H         1 UNK         0.0685 
     76 H76       -79.6641   25.4203  -69.9134 H         1 UNK         0.1434 
     77 H77       -76.6691   26.0269  -72.9178 H         1 UNK         0.1329 
     78 H78       -78.5522   29.3999  -71.0744 H         1 UNK         0.1335 
     79 H79       -76.6662   28.3247  -73.9736 H         1 UNK         0.0680 
     80 H80       -77.2279   29.7122  -73.0560 H         1 UNK         0.0680 
     81 H81       -74.8044   31.3056  -73.0144 H         1 UNK         0.1032 
     82 H82       -73.3438   30.4094  -73.3134 H         1 UNK         0.1032 
     83 H83       -75.8921   30.3287  -75.0078 H         1 UNK         0.0461 
     84 H84       -73.0480   32.1530  -77.1790 H         1 UNK         0.3453 
     85 H85       -72.9956   30.4266  -76.9169 H         1 UNK         0.3453 
     86 H86       -73.6148   28.5136  -75.0634 H         1 UNK         0.2984 
     87 H87       -74.7413   26.3093  -76.7244 H         1 UNK         0.0554 
     88 H88       -73.8327   26.1209  -79.0431 H         1 UNK         0.0847 
     89 H89       -73.8382   27.8790  -79.1901 H         1 UNK         0.0847 
     90 H90       -75.3503   27.0000  -79.0105 H         1 UNK         0.0847 
     91 H91       -72.6383   26.1293  -76.2123 H         1 UNK         0.3141 
     92 H92       -69.6854   27.5382  -76.9889 H         1 UNK         0.0743 
     93 H93       -70.0490   29.6035  -75.6497 H         1 UNK         0.0784 
     94 H94       -70.8382   28.6784  -74.3808 H         1 UNK         0.0784 
     95 H95       -69.1254   28.4347  -74.7246 H         1 UNK         0.0784 
     96 H96       -70.6805   26.2222  -74.5540 H         1 UNK         0.3213 
     97 H97       -70.6522   22.9871  -75.9331 H         1 UNK         0.0855 
     98 H98       -68.6644   24.1552  -73.9081 H         1 UNK         0.0814 
     99 H99       -68.2304   23.2880  -75.3742 H         1 UNK         0.0814 
    100 H100      -69.0842   22.4509  -74.0903 H         1 UNK         0.0814 
    101 H101      -71.0766   23.7564  -73.2666 H         1 UNK         0.3105 
    102 H102      -73.1521   23.6532  -72.4016 H         1 UNK         0.0547 
    103 H103      -74.3029   26.2301  -73.6187 H         1 UNK         0.0837 
    104 H104      -74.4691   25.7169  -71.9392 H         1 UNK         0.0837 
    105 H105      -72.8918   26.1412  -72.5733 H         1 UNK         0.0837 
    106 H106      -75.4436   24.1052  -74.2716 H         1 UNK         0.3020 
    107 H107      -76.2531   20.7195  -74.3077 H         1 UNK         0.1245 
    108 H108      -77.5160   21.4109  -72.1767 H         1 UNK         0.0781 
    109 H109      -78.4714   21.0846  -73.5861 H         1 UNK         0.0781 
    110 H110      -76.8358   23.8621  -71.4454 H         1 UNK         0.0836 
    111 H111      -78.3705   23.5396  -70.6763 H         1 UNK         0.0836 
    112 H112      -77.4184   23.1532  -75.3586 H         1 UNK         0.3022 
    113 H113      -75.3003   24.0678  -77.5509 H         1 UNK         0.0747 
    114 H114      -76.1851   23.3779  -79.7741 H         1 UNK         0.0793 
    115 H115      -75.1498   22.1344  -79.1020 H         1 UNK         0.0793 
    116 H116      -76.8954   21.9297  -79.0574 H         1 UNK         0.0793 
    117 H117      -78.0781   23.9278  -78.1918 H         1 UNK         0.3047 
    118 H118      -79.1782   25.9805  -77.8425 H         1 UNK         0.0822 
    119 H119      -80.0942   23.9138  -76.6000 H         1 UNK         0.0807 
    120 H120      -81.1130   25.3299  -76.4440 H         1 UNK         0.0807 
    121 H121      -80.0640   24.8566  -75.1153 H         1 UNK         0.0807 
    122 H122      -78.1364   27.2173  -75.5166 H         1 UNK         0.2946 
    123 H123      -78.7408   29.2028  -74.7800 H         1 UNK         0.1144 
    124 H124      -78.5878   30.4373  -76.9553 H         1 UNK         0.0793 
    125 H125      -79.2362   31.4672  -75.6889 H         1 UNK         0.0793 
    126 H126      -80.3152   30.7725  -76.8979 H         1 UNK         0.0793 
    127 H127      -81.6209   29.0113  -74.8016 H         1 UNK         0.2896 
@<TRIPOS>BOND
     1    1    2 1    
     2    1   67 1    
     3    1   68 1    
     4    1   69 1    
     5    2    3 2    
     6    2    4 am   BACKBONE|DICT|INTERRES
     7    4    5 1    
     8    4   70 1    
     9    5    6 1    
    10    5   65 1    
    11    5   71 1    
    12    6    7 1    
    13    6   72 1    
    14    6   73 1    
    15    7    8 1    
    16    8    9 1    
    17    8   74 1    
    18    8   75 1    
    19    9   10 ar   
    20    9   14 ar   
    21   10   11 ar   
    22   10   76 1    
    23   11   12 ar   
    24   11   48 1    
    25   12   13 ar   
    26   12   77 1    
    27   13   14 ar   
    28   13   15 1    
    29   14   78 1    
    30   15   16 1    
    31   15   79 1    
    32   15   80 1    
    33   16   17 1    
    34   17   18 1    
    35   17   81 1    
    36   17   82 1    
    37   18   19 1    
    38   18   22 1    
    39   18   83 1    
    40   19   20 am   BACKBONE|DICT|INTERRES
    41   19   21 2    
    42   20   84 1    
    43   20   85 1    
    44   22   23 am   BACKBONE|DICT|INTERRES
    45   22   86 1    
    46   23   24 2    
    47   23   25 1    
    48   25   26 1    
    49   25   27 1    
    50   25   87 1    
    51   26   88 1    
    52   26   89 1    
    53   26   90 1    
    54   27   28 am   BACKBONE|DICT|INTERRES
    55   27   91 1    
    56   28   29 2    
    57   28   30 1    
    58   30   31 1    
    59   30   32 1    
    60   30   92 1    
    61   31   93 1    
    62   31   94 1    
    63   31   95 1    
    64   32   33 am   BACKBONE|DICT|INTERRES
    65   32   96 1    
    66   33   34 2    
    67   33   35 1    
    68   35   36 1    
    69   35   37 1    
    70   35   97 1    
    71   36   98 1    
    72   36   99 1    
    73   36  100 1    
    74   37   38 am   BACKBONE|DICT|INTERRES
    75   37  101 1    
    76   38   39 2    
    77   38   40 1    
    78   40   41 1    
    79   40   42 1    
    80   40  102 1    
    81   41  103 1    
    82   41  104 1    
    83   41  105 1    
    84   42   43 am   BACKBONE|DICT|INTERRES
    85   42  106 1    
    86   43   44 2    
    87   43   45 1    
    88   45   46 1    
    89   45   49 1    
    90   45  107 1    
    91   46   47 1    
    92   46  108 1    
    93   46  109 1    
    94   47   48 1    
    95   48  110 1    
    96   48  111 1    
    97   49   50 am   BACKBONE|DICT|INTERRES
    98   49  112 1    
    99   50   51 2    
   100   50   52 1    
   101   52   53 1    
   102   52   54 1    
   103   52  113 1    
   104   53  114 1    
   105   53  115 1    
   106   53  116 1    
   107   54   55 am   BACKBONE|DICT|INTERRES
   108   54  117 1    
   109   55   56 2    
   110   55   57 1    
   111   57   58 1    
   112   57   59 1    
   113   57  118 1    
   114   58  119 1    
   115   58  120 1    
   116   58  121 1    
   117   59   60 am   BACKBONE|DICT|INTERRES
   118   59  122 1    
   119   60   61 2    
   120   60   62 1    
   121   62   63 1    
   122   62   64 1    
   123   62  123 1    
   124   63  124 1    
   125   63  125 1    
   126   63  126 1    
   127   64   65 am   BACKBONE|DICT|INTERRES
   128   64  127 1    
   129   65   66 2    
@<TRIPOS>SUBSTRUCTURE
     1 UNK         1 GROUP             0       ****    0 ROOT    
