@<TRIPOS>MOLECULE
3R135
127   129    1
SMALL
USER_CHARGES


@<TRIPOS>ATOM
      1 CA        -82.9254   23.9931  -70.8511 C.3       0 UNK        -0.1998 
      2 C         -82.1149   24.8254  -71.8334 C.2       0 UNK         0.4909 
      3 O         -80.9410   24.5285  -72.0522 O.2       0 UNK        -0.5240 
      4 N         -82.7361   25.8652  -72.4110 N.am      1 UNK        -0.4739 
      5 CA        -82.1865   26.7570  -73.4444 C.3       1 UNK         0.0864 
      6 C6        -80.8388   27.4125  -73.0213 C.3       11 UNK        -0.0881 
      7 S7        -80.5733   29.0821  -73.7138 S.3       11 UNK        -0.2682 
      8 C8        -79.7591   29.9421  -72.3269 C.3       11 UNK         0.0289 
      9 C9        -78.3627   29.3966  -72.0551 C.ar      11 UNK        -0.0687 
     10 C10       -78.1824   28.3544  -71.1419 C.ar      11 UNK        -0.0823 
     11 C11       -76.9114   27.8257  -70.9049 C.ar      11 UNK        -0.0830 
     12 C12       -75.8073   28.3696  -71.5664 C.ar      11 UNK        -0.1021 
     13 C13       -75.9667   29.4341  -72.4599 C.ar      11 UNK        -0.0753 
     14 C14       -77.2494   29.9374  -72.7065 C.ar      11 UNK        -0.0933 
     15 C15       -74.7587   30.0223  -73.1769 C.3       11 UNK         0.0166 
     16 S16       -73.5229   30.6654  -71.9992 S.3       11 UNK        -0.2615 
     17 C17       -72.9392   32.1925  -72.8192 C.3       11 UNK        -0.0865 
     18 CA        -71.6553   32.0133  -73.6714 C.3       10 UNK         0.0862 
     19 C         -70.3882   31.7217  -72.8110 C.2       10 UNK         0.5551 
     20 N         -69.6494   30.6419  -73.0424 N.am      10 UNK        -0.7319 
     21 O         -70.0587   32.5060  -71.9244 O.2       10 UNK        -0.5018 
     22 N         -71.8804   31.0744  -74.7776 N.am      10 UNK        -0.4509 
     23 C         -71.2176   31.0786  -75.9391 C.2       10 UNK         0.4899 
     24 O         -70.3951   31.9396  -76.2556 O.2       10 UNK        -0.4839 
     25 CA        -71.5345   29.9190  -76.9036 C.3       9 UNK         0.0222 
     26 CB        -70.4281   29.7014  -77.9573 C.3       9 UNK        -0.1966 
     27 N         -71.8527   28.6543  -76.2255 N.am      9 UNK        -0.4218 
     28 C         -71.0647   27.9598  -75.3850 C.2       9 UNK         0.5020 
     29 O         -69.9720   28.3659  -74.9866 O.2       9 UNK        -0.5274 
     30 CA        -71.5707   26.5913  -74.8800 C.3       8 UNK         0.0270 
     31 CB        -71.9667   26.6856  -73.3967 C.3       8 UNK        -0.1976 
     32 N         -72.6994   26.0529  -75.6462 N.am      8 UNK        -0.4313 
     33 C         -72.6432   25.6632  -76.9310 C.2       8 UNK         0.5041 
     34 O         -71.5904   25.5625  -77.5618 O.2       8 UNK        -0.5577 
     35 CA        -73.9753   25.3843  -77.6613 C.3       7 UNK         0.0284 
     36 CB        -74.1877   23.8723  -77.8408 C.3       7 UNK        -0.1958 
     37 N         -75.1562   25.9522  -77.0047 N.am      7 UNK        -0.4454 
     38 C         -75.3595   27.2442  -76.7073 C.2       7 UNK         0.5089 
     39 O         -74.6118   28.1547  -77.0652 O.2       7 UNK        -0.5125 
     40 CA        -76.5452   27.5616  -75.7780 C.3       6 UNK         0.0408 
     41 CB        -77.6936   28.2025  -76.5703 C.3       6 UNK        -0.1791 
     42 N         -77.0365   26.4015  -75.0157 N.am      6 UNK        -0.4762 
     43 C         -76.3127   25.7272  -74.1053 C.2       6 UNK         0.5007 
     44 O         -75.1323   25.9953  -73.8753 O.2       6 UNK        -0.5032 
     45 CA        -76.9478   24.5156  -73.3934 C.3       5 UNK         0.0783 
     46 C46       -77.5284   24.8620  -71.9972 C.3       11 UNK        -0.0857 
     47 S47       -76.2212   25.1236  -70.7466 S.3       11 UNK        -0.2512 
     48 C48       -76.7393   26.6688  -69.9301 C.3       11 UNK         0.0225 
     49 N         -77.9102   23.7935  -74.2356 N.am      5 UNK        -0.4615 
     50 C         -78.1302   22.4735  -74.1278 C.2       4 UNK         0.5053 
     51 O         -77.5401   21.7526  -73.3218 O.2       4 UNK        -0.5105 
     52 CA        -79.1693   21.8192  -75.0608 C.3       4 UNK         0.0263 
     53 CB        -80.5133   21.6555  -74.3330 C.3       4 UNK        -0.1981 
     54 N         -79.3919   22.5452  -76.3097 N.am      4 UNK        -0.4224 
     55 C         -78.4818   22.7240  -77.2766 C.2       3 UNK         0.4895 
     56 O         -77.3713   22.1925  -77.2734 O.2       3 UNK        -0.5091 
     57 CA        -78.8491   23.6776  -78.4332 C.3       3 UNK         0.0250 
     58 CB        -79.1086   22.8791  -79.7213 C.3       3 UNK        -0.1996 
     59 N         -79.9867   24.5814  -78.1964 N.am      3 UNK        -0.4254 
     60 C         -80.1174   25.4379  -77.1734 C.2       2 UNK         0.5004 
     61 O         -79.3180   25.4935  -76.2355 O.2       2 UNK        -0.5226 
     62 CA        -81.3228   26.3982  -77.1929 C.3       2 UNK         0.0269 
     63 CB        -82.5553   25.8442  -77.9441 C.3       2 UNK        -0.1926 
     64 N         -81.6720   26.8338  -75.8348 N.am      2 UNK        -0.4687 
     65 C         -82.1023   26.0637  -74.8252 C.2       1 UNK         0.5165 
     66 O         -82.4274   24.8803  -74.9603 O.2       1 UNK        -0.5079 
     67 H67       -82.9792   22.9601  -71.1936 H         1 UNK         0.0900 
     68 H68       -82.4503   24.0030  -69.8706 H         1 UNK         0.0900 
     69 H69       -83.9429   24.3673  -70.7394 H         1 UNK         0.0900 
     70 H70       -83.7096   26.0258  -72.1922 H         1 UNK         0.2959 
     71 H71       -82.9316   27.5473  -73.5511 H         1 UNK         0.1079 
     72 H72       -80.8231   27.5039  -71.9358 H         1 UNK         0.0837 
     73 H73       -79.9870   26.7799  -73.2793 H         1 UNK         0.0837 
     74 H74       -79.6988   31.0056  -72.5627 H         1 UNK         0.0685 
     75 H75       -80.3801   29.8665  -71.4329 H         1 UNK         0.0685 
     76 H76       -79.0354   27.9424  -70.6220 H         1 UNK         0.1434 
     77 H77       -74.8220   27.9601  -71.3896 H         1 UNK         0.1329 
     78 H78       -77.3856   30.7479  -73.4092 H         1 UNK         0.1335 
     79 H79       -74.2972   29.2485  -73.7912 H         1 UNK         0.0680 
     80 H80       -75.0746   30.8101  -73.8618 H         1 UNK         0.0680 
     81 H81       -72.7704   32.9438  -72.0453 H         1 UNK         0.1032 
     82 H82       -73.7370   32.6061  -73.4372 H         1 UNK         0.1032 
     83 H83       -71.4597   32.9882  -74.1223 H         1 UNK         0.0461 
     84 H84       -68.8313   30.4793  -72.4778 H         1 UNK         0.3453 
     85 H85       -69.8877   29.9862  -73.7782 H         1 UNK         0.3453 
     86 H86       -72.5099   30.3109  -74.5855 H         1 UNK         0.2984 
     87 H87       -72.4417   30.2097  -77.4351 H         1 UNK         0.0554 
     88 H88       -70.6832   28.8888  -78.6378 H         1 UNK         0.0847 
     89 H89       -69.4706   29.4615  -77.4936 H         1 UNK         0.0847 
     90 H90       -70.2810   30.5958  -78.5639 H         1 UNK         0.0847 
     91 H91       -72.7605   28.2644  -76.4668 H         1 UNK         0.3141 
     92 H92       -70.7405   25.8878  -74.9691 H         1 UNK         0.0743 
     93 H93       -71.1314   27.0356  -72.7885 H         1 UNK         0.0784 
     94 H94       -72.7940   27.3788  -73.2415 H         1 UNK         0.0784 
     95 H95       -72.2688   25.7148  -73.0033 H         1 UNK         0.0784 
     96 H96       -73.6012   26.0655  -75.1770 H         1 UNK         0.3213 
     97 H97       -73.9000   25.8428  -78.6495 H         1 UNK         0.0855 
     98 H98       -74.3039   23.3638  -76.8828 H         1 UNK         0.0814 
     99 H99       -73.3384   23.4158  -78.3514 H         1 UNK         0.0814 
    100 H100      -75.0737   23.6623  -78.4406 H         1 UNK         0.0814 
    101 H101      -75.8316   25.2924  -76.6480 H         1 UNK         0.3105 
    102 H102      -76.1959   28.2954  -75.0522 H         1 UNK         0.0547 
    103 H103      -77.3784   29.1502  -77.0085 H         1 UNK         0.0837 
    104 H104      -78.0249   27.5642  -77.3890 H         1 UNK         0.0837 
    105 H105      -78.5516   28.4107  -75.9315 H         1 UNK         0.0837 
    106 H106      -77.9841   26.1044  -75.2414 H         1 UNK         0.3020 
    107 H107      -76.1079   23.8346  -73.2329 H         1 UNK         0.1245 
    108 H108      -78.1445   24.0393  -71.6314 H         1 UNK         0.0781 
    109 H109      -78.2002   25.7174  -72.0588 H         1 UNK         0.0781 
    110 H110      -75.9918   26.9400  -69.1834 H         1 UNK         0.0836 
    111 H111      -77.6634   26.4817  -69.3809 H         1 UNK         0.0836 
    112 H112      -78.4336   24.3289  -74.9214 H         1 UNK         0.3022 
    113 H113      -78.7955   20.8256  -75.3170 H         1 UNK         0.0747 
    114 H114      -81.2322   21.1067  -74.9414 H         1 UNK         0.0793 
    115 H115      -80.3894   21.1033  -73.4004 H         1 UNK         0.0793 
    116 H116      -80.9532   22.6217  -74.0819 H         1 UNK         0.0793 
    117 H117      -80.2647   23.0473  -76.3877 H         1 UNK         0.3047 
    118 H118      -77.9742   24.3100  -78.5978 H         1 UNK         0.0822 
    119 H119      -79.2419   23.5384  -80.5792 H         1 UNK         0.0807 
    120 H120      -79.9982   22.2537  -79.6347 H         1 UNK         0.0807 
    121 H121      -78.2692   22.2210  -79.9515 H         1 UNK         0.0807 
    122 H122      -80.7005   24.5888  -78.9107 H         1 UNK         0.2946 
    123 H123      -80.9847   27.2919  -77.7198 H         1 UNK         0.1144 
    124 H124      -83.4085   26.5156  -77.8460 H         1 UNK         0.0793 
    125 H125      -82.8603   24.8662  -77.5699 H         1 UNK         0.0793 
    126 H126      -82.3582   25.7416  -79.0116 H         1 UNK         0.0793 
    127 H127      -81.3971   27.7795  -75.6005 H         1 UNK         0.2896 
@<TRIPOS>BOND
     1    1    2 1    
     2    1   67 1    
     3    1   68 1    
     4    1   69 1    
     5    2    3 2    
     6    2    4 am   BACKBONE|DICT|INTERRES
     7    4    5 1    
     8    4   70 1    
     9    5    6 1    
    10    5   65 1    
    11    5   71 1    
    12    6    7 1    
    13    6   72 1    
    14    6   73 1    
    15    7    8 1    
    16    8    9 1    
    17    8   74 1    
    18    8   75 1    
    19    9   10 ar   
    20    9   14 ar   
    21   10   11 ar   
    22   10   76 1    
    23   11   12 ar   
    24   11   48 1    
    25   12   13 ar   
    26   12   77 1    
    27   13   14 ar   
    28   13   15 1    
    29   14   78 1    
    30   15   16 1    
    31   15   79 1    
    32   15   80 1    
    33   16   17 1    
    34   17   18 1    
    35   17   81 1    
    36   17   82 1    
    37   18   19 1    
    38   18   22 1    
    39   18   83 1    
    40   19   20 am   BACKBONE|DICT|INTERRES
    41   19   21 2    
    42   20   84 1    
    43   20   85 1    
    44   22   23 am   BACKBONE|DICT|INTERRES
    45   22   86 1    
    46   23   24 2    
    47   23   25 1    
    48   25   26 1    
    49   25   27 1    
    50   25   87 1    
    51   26   88 1    
    52   26   89 1    
    53   26   90 1    
    54   27   28 am   BACKBONE|DICT|INTERRES
    55   27   91 1    
    56   28   29 2    
    57   28   30 1    
    58   30   31 1    
    59   30   32 1    
    60   30   92 1    
    61   31   93 1    
    62   31   94 1    
    63   31   95 1    
    64   32   33 am   BACKBONE|DICT|INTERRES
    65   32   96 1    
    66   33   34 2    
    67   33   35 1    
    68   35   36 1    
    69   35   37 1    
    70   35   97 1    
    71   36   98 1    
    72   36   99 1    
    73   36  100 1    
    74   37   38 am   BACKBONE|DICT|INTERRES
    75   37  101 1    
    76   38   39 2    
    77   38   40 1    
    78   40   41 1    
    79   40   42 1    
    80   40  102 1    
    81   41  103 1    
    82   41  104 1    
    83   41  105 1    
    84   42   43 am   BACKBONE|DICT|INTERRES
    85   42  106 1    
    86   43   44 2    
    87   43   45 1    
    88   45   46 1    
    89   45   49 1    
    90   45  107 1    
    91   46   47 1    
    92   46  108 1    
    93   46  109 1    
    94   47   48 1    
    95   48  110 1    
    96   48  111 1    
    97   49   50 am   BACKBONE|DICT|INTERRES
    98   49  112 1    
    99   50   51 2    
   100   50   52 1    
   101   52   53 1    
   102   52   54 1    
   103   52  113 1    
   104   53  114 1    
   105   53  115 1    
   106   53  116 1    
   107   54   55 am   BACKBONE|DICT|INTERRES
   108   54  117 1    
   109   55   56 2    
   110   55   57 1    
   111   57   58 1    
   112   57   59 1    
   113   57  118 1    
   114   58  119 1    
   115   58  120 1    
   116   58  121 1    
   117   59   60 am   BACKBONE|DICT|INTERRES
   118   59  122 1    
   119   60   61 2    
   120   60   62 1    
   121   62   63 1    
   122   62   64 1    
   123   62  123 1    
   124   63  124 1    
   125   63  125 1    
   126   63  126 1    
   127   64   65 am   BACKBONE|DICT|INTERRES
   128   64  127 1    
   129   65   66 2    
@<TRIPOS>SUBSTRUCTURE
     1 UNK         1 GROUP             0       ****    0 ROOT    
