@<TRIPOS>MOLECULE
3R135
127   129    1
SMALL
USER_CHARGES


@<TRIPOS>ATOM
      1 CA        -84.1497   27.4978  -73.2740 C.3       0 UNK        -0.1998 
      2 C         -83.9712   26.2547  -72.4060 C.2       0 UNK         0.4909 
      3 O         -84.9619   25.7390  -71.8917 O.2       0 UNK        -0.5240 
      4 N         -82.7528   25.7383  -72.1918 N.am      1 UNK        -0.4739 
      5 CA        -81.4715   26.1419  -72.7809 C.3       1 UNK         0.0864 
      6 C6        -80.2872   25.6297  -71.9217 C.3       11 UNK        -0.0881 
      7 S7        -80.2359   26.3817  -70.2595 S.3       11 UNK        -0.2682 
      8 C8        -78.4344   26.5607  -69.9912 C.3       11 UNK         0.0289 
      9 C9        -77.7882   27.8071  -70.6026 C.ar      11 UNK        -0.0687 
     10 C10       -78.3989   28.5557  -71.6158 C.ar      11 UNK        -0.0823 
     11 C11       -77.7718   29.6808  -72.1537 C.ar      11 UNK        -0.0830 
     12 C12       -76.5314   30.0830  -71.6551 C.ar      11 UNK        -0.1021 
     13 C13       -75.9030   29.3496  -70.6457 C.ar      11 UNK        -0.0753 
     14 C14       -76.5324   28.2097  -70.1332 C.ar      11 UNK        -0.0933 
     15 C15       -74.5578   29.7983  -70.0914 C.3       11 UNK         0.0166 
     16 S16       -73.1954   29.4577  -71.2492 S.3       11 UNK        -0.2615 
     17 C17       -72.9277   31.1095  -71.9881 C.3       11 UNK        -0.0865 
     18 CA        -71.8093   31.1411  -73.0621 C.3       10 UNK         0.0862 
     19 C         -70.3921   30.9380  -72.4441 C.2       10 UNK         0.5551 
     20 N         -69.6617   29.8766  -72.7689 N.am      10 UNK        -0.7319 
     21 O         -69.9434   31.7727  -71.6619 O.2       10 UNK        -0.5018 
     22 N         -72.1318   30.2558  -74.1888 N.am      10 UNK        -0.4509 
     23 C         -71.5638   30.3065  -75.4002 C.2       10 UNK         0.4899 
     24 O         -70.7984   31.2036  -75.7571 O.2       10 UNK        -0.4839 
     25 CA        -71.9051   29.1566  -76.3707 C.3       9 UNK         0.0222 
     26 CB        -70.7866   28.8980  -77.4014 C.3       9 UNK        -0.1966 
     27 N         -72.2806   27.9058  -75.6979 N.am      9 UNK        -0.4218 
     28 C         -71.5464   27.1881  -74.8327 C.2       9 UNK         0.5020 
     29 O         -70.4220   27.5127  -74.4470 O.2       9 UNK        -0.5274 
     30 CA        -72.1844   25.9017  -74.2837 C.3       8 UNK         0.0270 
     31 CB        -73.0394   26.2127  -73.0455 C.3       8 UNK        -0.1976 
     32 N         -72.9927   25.1929  -75.2801 N.am      8 UNK        -0.4313 
     33 C         -72.4780   24.5427  -76.3349 C.2       8 UNK         0.5041 
     34 O         -71.2698   24.4421  -76.5542 O.2       8 UNK        -0.5577 
     35 CA        -73.4691   23.8881  -77.3116 C.3       7 UNK         0.0284 
     36 CB        -73.9804   22.5530  -76.7483 C.3       7 UNK        -0.1958 
     37 N         -74.5992   24.7568  -77.6487 N.am      7 UNK        -0.4454 
     38 C         -74.4982   25.8888  -78.3611 C.2       7 UNK         0.5089 
     39 O         -73.4472   26.2995  -78.8533 O.2       7 UNK        -0.5125 
     40 CA        -75.7817   26.7206  -78.5371 C.3       6 UNK         0.0408 
     41 CB        -76.6352   26.1750  -79.6924 C.3       6 UNK        -0.1791 
     42 N         -76.5936   26.7978  -77.3207 N.am      6 UNK        -0.4762 
     43 C         -76.1841   27.3284  -76.1580 C.2       6 UNK         0.5007 
     44 O         -75.0711   27.8225  -75.9810 O.2       6 UNK        -0.5032 
     45 CA        -77.1666   27.2228  -74.9760 C.3       5 UNK         0.0783 
     46 C46       -78.3158   28.2605  -75.0868 C.3       11 UNK        -0.0857 
     47 S47       -77.7529   29.9893  -74.8985 S.3       11 UNK        -0.2512 
     48 C48       -78.4347   30.4587  -73.2782 C.3       11 UNK         0.0225 
     49 N         -77.6636   25.8447  -74.8653 N.am      5 UNK        -0.4615 
     50 C         -76.8940   24.7897  -74.5509 C.2       4 UNK         0.5053 
     51 O         -75.7133   24.8850  -74.2212 O.2       4 UNK        -0.5105 
     52 CA        -77.5099   23.3861  -74.6846 C.3       4 UNK         0.0263 
     53 CB        -78.0651   22.8794  -73.3474 C.3       4 UNK        -0.1981 
     54 N         -78.5443   23.3167  -75.7182 N.am      4 UNK        -0.4224 
     55 C         -78.2716   23.3154  -77.0315 C.2       3 UNK         0.4895 
     56 O         -77.1295   23.3312  -77.4886 O.2       3 UNK        -0.5091 
     57 CA        -79.4654   23.3575  -78.0009 C.3       3 UNK         0.0250 
     58 CB        -79.9618   21.9361  -78.3076 C.3       3 UNK        -0.1996 
     59 N         -80.5821   24.1746  -77.5178 N.am      3 UNK        -0.4254 
     60 C         -80.5014   25.4780  -77.2164 C.2       2 UNK         0.5004 
     61 O         -79.4684   26.1373  -77.3338 O.2       2 UNK        -0.5226 
     62 CA        -81.7598   26.1601  -76.6494 C.3       2 UNK         0.0269 
     63 CB        -83.0684   25.3810  -76.9172 C.3       2 UNK        -0.1926 
     64 N         -81.6345   26.4670  -75.2161 N.am      2 UNK        -0.4687 
     65 C         -81.3885   25.5974  -74.2224 C.2       1 UNK         0.5165 
     66 O         -81.1296   24.4054  -74.4025 O.2       1 UNK        -0.5079 
     67 H67       -85.1086   27.9684  -73.0572 H         1 UNK         0.0900 
     68 H68       -84.1488   27.2321  -74.3300 H         1 UNK         0.0900 
     69 H69       -83.3809   28.2457  -73.0884 H         1 UNK         0.0900 
     70 H70       -82.6937   24.9196  -71.6035 H         1 UNK         0.2959 
     71 H71       -81.4070   27.2299  -72.8117 H         1 UNK         0.1079 
     72 H72       -80.3583   24.5503  -71.7812 H         1 UNK         0.0837 
     73 H73       -79.3373   25.8162  -72.4264 H         1 UNK         0.0837 
     74 H74       -78.2692   26.5761  -68.9127 H         1 UNK         0.0685 
     75 H75       -77.9228   25.6726  -70.3650 H         1 UNK         0.0685 
     76 H76       -79.3656   28.2720  -71.9988 H         1 UNK         0.1434 
     77 H77       -76.0543   30.9630  -72.0615 H         1 UNK         0.1329 
     78 H78       -76.0472   27.6383  -69.3534 H         1 UNK         0.1335 
     79 H79       -74.5943   30.8612  -69.8483 H         1 UNK         0.0680 
     80 H80       -74.3459   29.2836  -69.1530 H         1 UNK         0.0680 
     81 H81       -73.8611   31.4491  -72.4366 H         1 UNK         0.1032 
     82 H82       -72.7080   31.8228  -71.1913 H         1 UNK         0.1032 
     83 H83       -71.7987   32.1559  -73.4646 H         1 UNK         0.0461 
     84 H84       -68.7467   29.7669  -72.3626 H         1 UNK         0.3453 
     85 H85       -70.0184   29.1690  -73.4029 H         1 UNK         0.3453 
     86 H86       -72.7381   29.4780  -73.9739 H         1 UNK         0.2984 
     87 H87       -72.7918   29.4776  -76.9189 H         1 UNK         0.0554 
     88 H88       -71.0588   28.0930  -78.0846 H         1 UNK         0.0847 
     89 H89       -69.8478   28.6252  -76.9184 H         1 UNK         0.0847 
     90 H90       -70.5962   29.7847  -78.0072 H         1 UNK         0.0847 
     91 H91       -73.2370   27.6035  -75.8774 H         1 UNK         0.3141 
     92 H92       -71.3739   25.2383  -73.9741 H         1 UNK         0.0743 
     93 H93       -72.4420   26.6991  -72.2735 H         1 UNK         0.0784 
     94 H94       -73.8732   26.8754  -73.2826 H         1 UNK         0.0784 
     95 H95       -73.4507   25.3028  -72.6082 H         1 UNK         0.0784 
     96 H96       -73.9982   25.1834  -75.1284 H         1 UNK         0.3213 
     97 H97       -72.9294   23.6765  -78.2374 H         1 UNK         0.0855 
     98 H98       -74.5190   22.6906  -75.8112 H         1 UNK         0.0814 
     99 H99       -73.1515   21.8726  -76.5491 H         1 UNK         0.0814 
    100 H100      -74.6477   22.0532  -77.4507 H         1 UNK         0.0814 
    101 H101      -75.5228   24.4429  -77.3639 H         1 UNK         0.3105 
    102 H102      -75.4816   27.7394  -78.7909 H         1 UNK         0.0547 
    103 H103      -77.5145   26.7960  -79.8644 H         1 UNK         0.0837 
    104 H104      -76.0648   26.1553  -80.6219 H         1 UNK         0.0837 
    105 H105      -76.9771   25.1583  -79.4991 H         1 UNK         0.0837 
    106 H106      -77.5417   26.4335  -77.3750 H         1 UNK         0.3020 
    107 H107      -76.6038   27.4385  -74.0638 H         1 UNK         0.1245 
    108 H108      -79.0825   28.0504  -74.3426 H         1 UNK         0.0781 
    109 H109      -78.8208   28.1897  -76.0497 H         1 UNK         0.0781 
    110 H110      -78.2780   31.5276  -73.1254 H         1 UNK         0.0836 
    111 H111      -79.5154   30.3079  -73.2760 H         1 UNK         0.0836 
    112 H112      -78.5901   25.6720  -75.2276 H         1 UNK         0.3022 
    113 H113      -76.7010   22.7108  -74.9687 H         1 UNK         0.0747 
    114 H114      -78.2941   21.8148  -73.3973 H         1 UNK         0.0793 
    115 H115      -78.9780   23.3978  -73.0704 H         1 UNK         0.0793 
    116 H116      -77.3445   23.0185  -72.5401 H         1 UNK         0.0793 
    117 H117      -79.5108   23.3521  -75.4121 H         1 UNK         0.3047 
    118 H118      -79.1121   23.8047  -78.9324 H         1 UNK         0.0822 
    119 H119      -79.1503   21.3136  -78.6877 H         1 UNK         0.0807 
    120 H120      -80.7440   21.9436  -79.0670 H         1 UNK         0.0807 
    121 H121      -80.3601   21.4454  -77.4186 H         1 UNK         0.0807 
    122 H122      -81.4609   23.7020  -77.3626 H         1 UNK         0.2946 
    123 H123      -81.8358   27.1157  -77.1716 H         1 UNK         0.1144 
    124 H124      -83.1878   25.1615  -77.9792 H         1 UNK         0.0793 
    125 H125      -83.9373   25.9669  -76.6175 H         1 UNK         0.0793 
    126 H126      -83.1109   24.4362  -76.3742 H         1 UNK         0.0793 
    127 H127      -81.7929   27.4364  -74.9796 H         1 UNK         0.2896 
@<TRIPOS>BOND
     1    1    2 1    
     2    1   67 1    
     3    1   68 1    
     4    1   69 1    
     5    2    3 2    
     6    2    4 am   BACKBONE|DICT|INTERRES
     7    4    5 1    
     8    4   70 1    
     9    5    6 1    
    10    5   65 1    
    11    5   71 1    
    12    6    7 1    
    13    6   72 1    
    14    6   73 1    
    15    7    8 1    
    16    8    9 1    
    17    8   74 1    
    18    8   75 1    
    19    9   10 ar   
    20    9   14 ar   
    21   10   11 ar   
    22   10   76 1    
    23   11   12 ar   
    24   11   48 1    
    25   12   13 ar   
    26   12   77 1    
    27   13   14 ar   
    28   13   15 1    
    29   14   78 1    
    30   15   16 1    
    31   15   79 1    
    32   15   80 1    
    33   16   17 1    
    34   17   18 1    
    35   17   81 1    
    36   17   82 1    
    37   18   19 1    
    38   18   22 1    
    39   18   83 1    
    40   19   20 am   BACKBONE|DICT|INTERRES
    41   19   21 2    
    42   20   84 1    
    43   20   85 1    
    44   22   23 am   BACKBONE|DICT|INTERRES
    45   22   86 1    
    46   23   24 2    
    47   23   25 1    
    48   25   26 1    
    49   25   27 1    
    50   25   87 1    
    51   26   88 1    
    52   26   89 1    
    53   26   90 1    
    54   27   28 am   BACKBONE|DICT|INTERRES
    55   27   91 1    
    56   28   29 2    
    57   28   30 1    
    58   30   31 1    
    59   30   32 1    
    60   30   92 1    
    61   31   93 1    
    62   31   94 1    
    63   31   95 1    
    64   32   33 am   BACKBONE|DICT|INTERRES
    65   32   96 1    
    66   33   34 2    
    67   33   35 1    
    68   35   36 1    
    69   35   37 1    
    70   35   97 1    
    71   36   98 1    
    72   36   99 1    
    73   36  100 1    
    74   37   38 am   BACKBONE|DICT|INTERRES
    75   37  101 1    
    76   38   39 2    
    77   38   40 1    
    78   40   41 1    
    79   40   42 1    
    80   40  102 1    
    81   41  103 1    
    82   41  104 1    
    83   41  105 1    
    84   42   43 am   BACKBONE|DICT|INTERRES
    85   42  106 1    
    86   43   44 2    
    87   43   45 1    
    88   45   46 1    
    89   45   49 1    
    90   45  107 1    
    91   46   47 1    
    92   46  108 1    
    93   46  109 1    
    94   47   48 1    
    95   48  110 1    
    96   48  111 1    
    97   49   50 am   BACKBONE|DICT|INTERRES
    98   49  112 1    
    99   50   51 2    
   100   50   52 1    
   101   52   53 1    
   102   52   54 1    
   103   52  113 1    
   104   53  114 1    
   105   53  115 1    
   106   53  116 1    
   107   54   55 am   BACKBONE|DICT|INTERRES
   108   54  117 1    
   109   55   56 2    
   110   55   57 1    
   111   57   58 1    
   112   57   59 1    
   113   57  118 1    
   114   58  119 1    
   115   58  120 1    
   116   58  121 1    
   117   59   60 am   BACKBONE|DICT|INTERRES
   118   59  122 1    
   119   60   61 2    
   120   60   62 1    
   121   62   63 1    
   122   62   64 1    
   123   62  123 1    
   124   63  124 1    
   125   63  125 1    
   126   63  126 1    
   127   64   65 am   BACKBONE|DICT|INTERRES
   128   64  127 1    
   129   65   66 2    
@<TRIPOS>SUBSTRUCTURE
     1 UNK         1 GROUP             0       ****    0 ROOT    
