@<TRIPOS>MOLECULE
3R135
127   129    1
SMALL
USER_CHARGES


@<TRIPOS>ATOM
      1 CA        -85.5551   24.7777  -75.3016 C.3       0 UNK        -0.1998 
      2 C         -84.1751   25.4152  -75.3615 C.2       0 UNK         0.4909 
      3 O         -83.8025   25.9683  -76.3963 O.2       0 UNK        -0.5240 
      4 N         -83.4194   25.3475  -74.2569 N.am      1 UNK        -0.4739 
      5 CA        -82.0513   25.8640  -74.1370 C.3       1 UNK         0.0864 
      6 C6        -81.6318   25.9482  -72.6431 C.3       11 UNK        -0.0881 
      7 S7        -79.9205   26.5023  -72.3330 S.3       11 UNK        -0.2682 
      8 C8        -80.1428   28.2674  -71.9309 C.3       11 UNK         0.0289 
      9 C9        -78.8082   28.9594  -71.6661 C.ar      11 UNK        -0.0687 
     10 C10       -78.4048   30.0646  -72.4284 C.ar      11 UNK        -0.0823 
     11 C11       -77.1762   30.6938  -72.1835 C.ar      11 UNK        -0.0830 
     12 C12       -76.3633   30.2156  -71.1481 C.ar      11 UNK        -0.1021 
     13 C13       -76.7509   29.1133  -70.3832 C.ar      11 UNK        -0.0753 
     14 C14       -77.9745   28.4936  -70.6449 C.ar      11 UNK        -0.0933 
     15 C15       -75.8668   28.6054  -69.2535 C.3       11 UNK         0.0166 
     16 S16       -74.7119   27.3142  -69.8155 S.3       11 UNK        -0.2615 
     17 C17       -73.3800   28.2970  -70.5924 C.3       11 UNK        -0.0865 
     18 CA        -73.2818   28.0913  -72.1325 C.3       10 UNK         0.0862 
     19 C         -72.2578   29.0617  -72.8028 C.2       10 UNK         0.5551 
     20 N         -71.6364   28.6965  -73.9197 N.am      10 UNK        -0.7319 
     21 O         -72.0334   30.1688  -72.3208 O.2       10 UNK        -0.5018 
     22 N         -73.0985   26.6788  -72.5086 N.am      10 UNK        -0.4509 
     23 C         -72.0022   25.9467  -72.2746 C.2       10 UNK         0.4899 
     24 O         -71.0226   26.3510  -71.6465 O.2       10 UNK        -0.4839 
     25 CA        -71.9677   24.5181  -72.8398 C.3       9 UNK         0.0222 
     26 CB        -72.5239   23.5306  -71.8012 C.3       9 UNK        -0.1966 
     27 N         -72.6429   24.2951  -74.1248 N.am      9 UNK        -0.4218 
     28 C         -72.5104   24.9882  -75.2671 C.2       9 UNK         0.5020 
     29 O         -71.9329   26.0730  -75.3616 O.2       9 UNK        -0.5274 
     30 CA        -73.0489   24.3118  -76.5417 C.3       8 UNK         0.0270 
     31 CB        -73.6078   22.8835  -76.3159 C.3       8 UNK        -0.1976 
     32 N         -74.0458   25.1504  -77.2082 N.am      8 UNK        -0.4313 
     33 C         -74.4234   24.9966  -78.4853 C.2       8 UNK         0.5041 
     34 O         -73.8712   24.2246  -79.2717 O.2       8 UNK        -0.5577 
     35 CA        -75.6342   25.8004  -78.9765 C.3       7 UNK         0.0284 
     36 CB        -76.9269   25.3016  -78.3059 C.3       7 UNK        -0.1958 
     37 N         -75.4831   27.2347  -78.7354 N.am      7 UNK        -0.4454 
     38 C         -75.3629   28.1611  -79.6964 C.2       7 UNK         0.5089 
     39 O         -75.2577   27.8893  -80.8935 O.2       7 UNK        -0.5125 
     40 CA        -75.4090   29.6460  -79.2841 C.3       6 UNK         0.0408 
     41 CB        -76.6313   30.3375  -79.9128 C.3       6 UNK        -0.1791 
     42 N         -75.4631   29.8447  -77.8341 N.am      6 UNK        -0.4762 
     43 C         -74.3933   30.0212  -77.0476 C.2       6 UNK         0.5007 
     44 O         -73.2359   30.0594  -77.4657 O.2       6 UNK        -0.5032 
     45 CA        -74.6598   30.1748  -75.5353 C.3       5 UNK         0.0783 
     46 C46       -74.9202   31.6618  -75.1916 C.3       11 UNK        -0.0857 
     47 S47       -74.9791   31.9814  -73.3953 S.3       11 UNK        -0.2512 
     48 C48       -76.7655   31.9258  -72.9932 C.3       11 UNK         0.0225 
     49 N         -75.7434   29.3310  -75.0208 N.am      5 UNK        -0.4615 
     50 C         -75.9477   28.0248  -75.2232 C.2       4 UNK         0.5053 
     51 O         -75.2237   27.3012  -75.9059 O.2       4 UNK        -0.5105 
     52 CA        -77.2560   27.4926  -74.6280 C.3       4 UNK         0.0263 
     53 CB        -78.4493   28.0854  -75.4019 C.3       4 UNK        -0.1981 
     54 N         -77.3923   26.0341  -74.5702 N.am      4 UNK        -0.4224 
     55 C         -76.5821   25.2028  -73.8968 C.2       3 UNK         0.4895 
     56 O         -75.5242   25.5555  -73.3777 O.2       3 UNK        -0.5091 
     57 CA        -77.0304   23.7390  -73.7165 C.3       3 UNK         0.0250 
     58 CB        -76.9503   23.3270  -72.2352 C.3       3 UNK        -0.1996 
     59 N         -78.3977   23.4972  -74.1790 N.am      3 UNK        -0.4254 
     60 C         -78.7379   22.9381  -75.3472 C.2       2 UNK         0.5004 
     61 O         -77.9235   22.5498  -76.1843 O.2       2 UNK        -0.5226 
     62 CA        -80.2463   22.7875  -75.6357 C.3       2 UNK         0.0269 
     63 CB        -80.7027   21.3448  -75.3648 C.3       2 UNK        -0.1926 
     64 N         -81.1066   23.7118  -74.8823 N.am      2 UNK        -0.4687 
     65 C         -81.0715   25.0466  -75.0093 C.2       1 UNK         0.5165 
     66 O         -80.3078   25.6239  -75.7820 O.2       1 UNK        -0.5079 
     67 H67       -85.6391   23.9942  -76.0542 H         1 UNK         0.0900 
     68 H68       -86.3226   25.5251  -75.5006 H         1 UNK         0.0900 
     69 H69       -85.7587   24.3345  -74.3269 H         1 UNK         0.0900 
     70 H70       -83.7911   24.8877  -73.4375 H         1 UNK         0.2959 
     71 H71       -82.0474   26.8811  -74.5362 H         1 UNK         0.1079 
     72 H72       -82.3156   26.6080  -72.1066 H         1 UNK         0.0837 
     73 H73       -81.7402   24.9703  -72.1705 H         1 UNK         0.0837 
     74 H74       -80.6749   28.7535  -72.7500 H         1 UNK         0.0685 
     75 H75       -80.7740   28.3602  -71.0461 H         1 UNK         0.0685 
     76 H76       -79.0529   30.4376  -73.2099 H         1 UNK         0.1434 
     77 H77       -75.4264   30.7080  -70.9287 H         1 UNK         0.1329 
     78 H78       -78.2796   27.6409  -70.0537 H         1 UNK         0.1335 
     79 H79       -76.4912   28.1877  -68.4623 H         1 UNK         0.0680 
     80 H80       -75.3164   29.4282  -68.7948 H         1 UNK         0.0680 
     81 H81       -73.5354   29.3508  -70.3591 H         1 UNK         0.1032 
     82 H82       -72.4366   28.0312  -70.1136 H         1 UNK         0.1032 
     83 H83       -74.2465   28.3764  -72.5534 H         1 UNK         0.0461 
     84 H84       -70.9729   29.3237  -74.3442 H         1 UNK         0.3453 
     85 H85       -71.8033   27.7825  -74.3308 H         1 UNK         0.3453 
     86 H86       -73.8872   26.2434  -72.9851 H         1 UNK         0.2984 
     87 H87       -70.9170   24.2718  -73.0045 H         1 UNK         0.0554 
     88 H88       -72.4017   22.4961  -72.1223 H         1 UNK         0.0847 
     89 H89       -73.5835   23.7054  -71.6134 H         1 UNK         0.0847 
     90 H90       -72.0055   23.6340  -70.8467 H         1 UNK         0.0847 
     91 H91       -73.1718   23.4381  -74.1849 H         1 UNK         0.3141 
     92 H92       -72.1865   24.2272  -77.2063 H         1 UNK         0.0743 
     93 H93       -72.8772   22.2363  -75.8286 H         1 UNK         0.0784 
     94 H94       -74.5145   22.8923  -75.7121 H         1 UNK         0.0784 
     95 H95       -73.8562   22.4004  -77.2609 H         1 UNK         0.0784 
     96 H96       -74.4807   25.8768  -76.6357 H         1 UNK         0.3213 
     97 H97       -75.7332   25.6061  -80.0468 H         1 UNK         0.0855 
     98 H98       -77.0675   24.2330  -78.4745 H         1 UNK         0.0814 
     99 H99       -77.8038   25.8110  -78.7054 H         1 UNK         0.0814 
    100 H100      -76.9143   25.4579  -77.2281 H         1 UNK         0.0814 
    101 H101      -75.4644   27.5255  -77.7621 H         1 UNK         0.3105 
    102 H102      -74.5125   30.1213  -79.6877 H         1 UNK         0.0547 
    103 H103      -76.6093   30.2611  -81.0008 H         1 UNK         0.0837 
    104 H104      -77.5674   29.8911  -79.5748 H         1 UNK         0.0837 
    105 H105      -76.6568   31.3993  -79.6675 H         1 UNK         0.0837 
    106 H106      -76.3778   29.8240  -77.4067 H         1 UNK         0.3020 
    107 H107      -73.7458   29.8601  -75.0375 H         1 UNK         0.1245 
    108 H108      -75.8373   32.0205  -75.6626 H         1 UNK         0.0781 
    109 H109      -74.1183   32.2856  -75.5920 H         1 UNK         0.0781 
    110 H110      -77.3580   32.0056  -73.9054 H         1 UNK         0.0836 
    111 H111      -77.0064   32.8103  -72.4021 H         1 UNK         0.0836 
    112 H112      -76.3908   29.8128  -74.4145 H         1 UNK         0.3022 
    113 H113      -77.2880   27.8367  -73.5954 H         1 UNK         0.0747 
    114 H114      -79.3906   27.8807  -74.8955 H         1 UNK         0.0793 
    115 H115      -78.3848   29.1696  -75.4959 H         1 UNK         0.0793 
    116 H116      -78.5150   27.6755  -76.4106 H         1 UNK         0.0793 
    117 H117      -78.2398   25.6564  -74.9746 H         1 UNK         0.3047 
    118 H118      -76.3326   23.1165  -74.2778 H         1 UNK         0.0822 
    119 H119      -77.2462   22.2872  -72.0952 H         1 UNK         0.0807 
    120 H120      -77.5942   23.9478  -71.6104 H         1 UNK         0.0807 
    121 H121      -75.9350   23.4252  -71.8510 H         1 UNK         0.0807 
    122 H122      -79.1392   23.8000  -73.5633 H         1 UNK         0.2946 
    123 H123      -80.3858   22.9977  -76.6988 H         1 UNK         0.1144 
    124 H124      -81.7419   21.1946  -75.6582 H         1 UNK         0.0793 
    125 H125      -80.6083   21.0828  -74.3102 H         1 UNK         0.0793 
    126 H126      -80.1025   20.6321  -75.9324 H         1 UNK         0.0793 
    127 H127      -81.7730   23.3019  -74.2438 H         1 UNK         0.2896 
@<TRIPOS>BOND
     1    1    2 1    
     2    1   67 1    
     3    1   68 1    
     4    1   69 1    
     5    2    3 2    
     6    2    4 am   BACKBONE|DICT|INTERRES
     7    4    5 1    
     8    4   70 1    
     9    5    6 1    
    10    5   65 1    
    11    5   71 1    
    12    6    7 1    
    13    6   72 1    
    14    6   73 1    
    15    7    8 1    
    16    8    9 1    
    17    8   74 1    
    18    8   75 1    
    19    9   10 ar   
    20    9   14 ar   
    21   10   11 ar   
    22   10   76 1    
    23   11   12 ar   
    24   11   48 1    
    25   12   13 ar   
    26   12   77 1    
    27   13   14 ar   
    28   13   15 1    
    29   14   78 1    
    30   15   16 1    
    31   15   79 1    
    32   15   80 1    
    33   16   17 1    
    34   17   18 1    
    35   17   81 1    
    36   17   82 1    
    37   18   19 1    
    38   18   22 1    
    39   18   83 1    
    40   19   20 am   BACKBONE|DICT|INTERRES
    41   19   21 2    
    42   20   84 1    
    43   20   85 1    
    44   22   23 am   BACKBONE|DICT|INTERRES
    45   22   86 1    
    46   23   24 2    
    47   23   25 1    
    48   25   26 1    
    49   25   27 1    
    50   25   87 1    
    51   26   88 1    
    52   26   89 1    
    53   26   90 1    
    54   27   28 am   BACKBONE|DICT|INTERRES
    55   27   91 1    
    56   28   29 2    
    57   28   30 1    
    58   30   31 1    
    59   30   32 1    
    60   30   92 1    
    61   31   93 1    
    62   31   94 1    
    63   31   95 1    
    64   32   33 am   BACKBONE|DICT|INTERRES
    65   32   96 1    
    66   33   34 2    
    67   33   35 1    
    68   35   36 1    
    69   35   37 1    
    70   35   97 1    
    71   36   98 1    
    72   36   99 1    
    73   36  100 1    
    74   37   38 am   BACKBONE|DICT|INTERRES
    75   37  101 1    
    76   38   39 2    
    77   38   40 1    
    78   40   41 1    
    79   40   42 1    
    80   40  102 1    
    81   41  103 1    
    82   41  104 1    
    83   41  105 1    
    84   42   43 am   BACKBONE|DICT|INTERRES
    85   42  106 1    
    86   43   44 2    
    87   43   45 1    
    88   45   46 1    
    89   45   49 1    
    90   45  107 1    
    91   46   47 1    
    92   46  108 1    
    93   46  109 1    
    94   47   48 1    
    95   48  110 1    
    96   48  111 1    
    97   49   50 am   BACKBONE|DICT|INTERRES
    98   49  112 1    
    99   50   51 2    
   100   50   52 1    
   101   52   53 1    
   102   52   54 1    
   103   52  113 1    
   104   53  114 1    
   105   53  115 1    
   106   53  116 1    
   107   54   55 am   BACKBONE|DICT|INTERRES
   108   54  117 1    
   109   55   56 2    
   110   55   57 1    
   111   57   58 1    
   112   57   59 1    
   113   57  118 1    
   114   58  119 1    
   115   58  120 1    
   116   58  121 1    
   117   59   60 am   BACKBONE|DICT|INTERRES
   118   59  122 1    
   119   60   61 2    
   120   60   62 1    
   121   62   63 1    
   122   62   64 1    
   123   62  123 1    
   124   63  124 1    
   125   63  125 1    
   126   63  126 1    
   127   64   65 am   BACKBONE|DICT|INTERRES
   128   64  127 1    
   129   65   66 2    
@<TRIPOS>SUBSTRUCTURE
     1 UNK         1 GROUP             0       ****    0 ROOT    
