@<TRIPOS>MOLECULE
3R135
127   129    1
SMALL
USER_CHARGES


@<TRIPOS>ATOM
      1 CA        -78.3171   30.7288  -75.4824 C.3       0 UNK        -0.1998 
      2 C         -78.7331   29.6010  -74.5505 C.2       0 UNK         0.4909 
      3 O         -77.9115   28.7465  -74.2289 O.2       0 UNK        -0.5240 
      4 N         -79.9972   29.6013  -74.1085 N.am      1 UNK        -0.4739 
      5 CA        -80.5832   28.5455  -73.2786 C.3       1 UNK         0.0864 
      6 C6        -81.7277   29.1063  -72.3948 C.3       11 UNK        -0.0881 
      7 S7        -82.1316   28.0274  -70.9772 S.3       11 UNK        -0.2682 
      8 C8        -81.1442   28.7725  -69.6368 C.3       11 UNK         0.0289 
      9 C9        -79.6538   28.6321  -69.9052 C.ar      11 UNK        -0.0687 
     10 C10       -79.0359   27.3858  -69.7732 C.ar      11 UNK        -0.0823 
     11 C11       -77.6886   27.2284  -70.1042 C.ar      11 UNK        -0.0830 
     12 C12       -76.9503   28.3367  -70.5295 C.ar      11 UNK        -0.1021 
     13 C13       -77.5546   29.5920  -70.6750 C.ar      11 UNK        -0.0753 
     14 C14       -78.9070   29.7298  -70.3457 C.ar      11 UNK        -0.0933 
     15 C15       -76.8234   30.8003  -71.2654 C.3       11 UNK         0.0166 
     16 S16       -75.0092   30.6365  -71.4227 S.3       11 UNK        -0.2615 
     17 C17       -74.6557   31.8893  -72.7026 C.3       11 UNK        -0.0865 
     18 CA        -74.3378   31.2609  -74.0874 C.3       10 UNK         0.0862 
     19 C         -74.2619   32.3717  -75.1768 C.2       10 UNK         0.5551 
     20 N         -73.1038   32.6585  -75.7588 N.am      10 UNK        -0.7319 
     21 O         -75.2767   32.9866  -75.4940 O.2       10 UNK        -0.5018 
     22 N         -73.1681   30.3657  -74.0164 N.am      10 UNK        -0.4509 
     23 C         -72.7891   29.4962  -74.9631 C.2       10 UNK         0.4899 
     24 O         -73.3734   29.3628  -76.0375 O.2       10 UNK        -0.4839 
     25 CA        -71.5353   28.6484  -74.6808 C.3       9 UNK         0.0222 
     26 CB        -71.0316   28.7313  -73.2196 C.3       9 UNK        -0.1966 
     27 N         -71.7957   27.2565  -75.0486 N.am      9 UNK        -0.4218 
     28 C         -70.8613   26.3333  -75.3064 C.2       9 UNK         0.5020 
     29 O         -69.6525   26.5720  -75.3359 O.2       9 UNK        -0.5274 
     30 CA        -71.3415   24.8896  -75.5358 C.3       8 UNK         0.0270 
     31 CB        -71.7420   24.2332  -74.2037 C.3       8 UNK        -0.1976 
     32 N         -72.4489   24.7824  -76.4864 N.am      8 UNK        -0.4313 
     33 C         -72.3312   24.9371  -77.8126 C.2       8 UNK         0.5041 
     34 O         -71.2709   25.2001  -78.3818 O.2       8 UNK        -0.5577 
     35 CA        -73.6077   24.7529  -78.6518 C.3       7 UNK         0.0284 
     36 CB        -73.8876   23.2625  -78.9044 C.3       7 UNK        -0.1958 
     37 N         -74.7717   25.3750  -78.0215 N.am      7 UNK        -0.4454 
     38 C         -74.9799   26.6980  -77.9730 C.2       7 UNK         0.5089 
     39 O         -74.2934   27.5174  -78.5837 O.2       7 UNK        -0.5125 
     40 CA        -76.1444   27.1934  -77.0971 C.3       6 UNK         0.0408 
     41 CB        -77.4222   27.3567  -77.9343 C.3       6 UNK        -0.1791 
     42 N         -76.4284   26.3215  -75.9558 N.am      6 UNK        -0.4762 
     43 C         -75.5997   26.0941  -74.9272 C.2       6 UNK         0.5007 
     44 O         -74.4739   26.5764  -74.8267 O.2       6 UNK        -0.5032 
     45 CA        -76.0897   25.1119  -73.8491 C.3       5 UNK         0.0783 
     46 C46       -77.0923   25.8157  -72.9106 C.3       11 UNK        -0.0857 
     47 S47       -77.5823   24.8096  -71.4689 S.3       11 UNK        -0.2512 
     48 C48       -77.0424   25.8495  -70.0675 C.3       11 UNK         0.0225 
     49 N         -76.6341   23.8943  -74.4537 N.am      5 UNK        -0.4615 
     50 C         -75.9202   23.0162  -75.1703 C.2       4 UNK         0.5053 
     51 O         -74.7094   23.1178  -75.3676 O.2       4 UNK        -0.5105 
     52 CA        -76.6973   21.8521  -75.8069 C.3       4 UNK         0.0263 
     53 CB        -76.9072   20.7205  -74.7884 C.3       4 UNK        -0.1981 
     54 N         -77.9917   22.2732  -76.3501 N.am      4 UNK        -0.4224 
     55 C         -78.1382   23.0870  -77.4062 C.2       3 UNK         0.4895 
     56 O         -77.1985   23.5228  -78.0711 O.2       3 UNK        -0.5091 
     57 CA        -79.5743   23.5258  -77.7495 C.3       3 UNK         0.0250 
     58 CB        -80.2703   22.4677  -78.6205 C.3       3 UNK        -0.1996 
     59 N         -80.4045   23.8237  -76.5734 N.am      3 UNK        -0.4254 
     60 C         -80.1038   24.7502  -75.6524 C.2       2 UNK         0.5004 
     61 O         -79.0720   25.4210  -75.6859 O.2       2 UNK        -0.5226 
     62 CA        -81.0861   24.9149  -74.4777 C.3       2 UNK         0.0269 
     63 CB        -80.9767   23.7202  -73.5146 C.3       2 UNK        -0.1926 
     64 N         -80.8329   26.1445  -73.7197 N.am      2 UNK        -0.4687 
     65 C         -81.0547   27.3842  -74.1763 C.2       1 UNK         0.5165 
     66 O         -81.6251   27.6296  -75.2436 O.2       1 UNK        -0.5079 
     67 H67       -77.8246   30.3226  -76.3657 H         1 UNK         0.0900 
     68 H68       -77.6153   31.3917  -74.9772 H         1 UNK         0.0900 
     69 H69       -79.1700   31.3215  -75.8121 H         1 UNK         0.0900 
     70 H70       -80.6413   30.3041  -74.4416 H         1 UNK         0.2959 
     71 H71       -79.7954   28.1649  -72.6250 H         1 UNK         0.1079 
     72 H72       -81.4535   30.0877  -72.0046 H         1 UNK         0.0837 
     73 H73       -82.6329   29.2698  -72.9830 H         1 UNK         0.0837 
     74 H74       -81.3912   28.2771  -68.6968 H         1 UNK         0.0685 
     75 H75       -81.4240   29.8201  -69.5142 H         1 UNK         0.0685 
     76 H76       -79.6164   26.5279  -69.4616 H         1 UNK         0.1434 
     77 H77       -75.9151   28.1940  -70.8022 H         1 UNK         0.1329 
     78 H78       -79.3915   30.6880  -70.4751 H         1 UNK         0.1335 
     79 H79       -77.0377   31.6860  -70.6655 H         1 UNK         0.0680 
     80 H80       -77.2431   30.9831  -72.2552 H         1 UNK         0.0680 
     81 H81       -75.5036   32.5739  -72.7719 H         1 UNK         0.1032 
     82 H82       -73.8153   32.4973  -72.3627 H         1 UNK         0.1032 
     83 H83       -75.1883   30.6346  -74.3651 H         1 UNK         0.0461 
     84 H84       -72.2690   32.1539  -75.5085 H         1 UNK         0.3453 
     85 H85       -73.0687   33.3783  -76.4631 H         1 UNK         0.3453 
     86 H86       -72.6382   30.4058  -73.1588 H         1 UNK         0.2984 
     87 H87       -70.7528   29.0346  -75.3368 H         1 UNK         0.0554 
     88 H88       -70.1379   28.1252  -73.0715 H         1 UNK         0.0847 
     89 H89       -71.7850   28.3809  -72.5126 H         1 UNK         0.0847 
     90 H90       -70.7588   29.7512  -72.9462 H         1 UNK         0.0847 
     91 H91       -72.7830   26.9908  -75.0722 H         1 UNK         0.3141 
     92 H92       -70.4990   24.3250  -75.9414 H         1 UNK         0.0743 
     93 H93       -70.9258   24.2838  -73.4818 H         1 UNK         0.0784 
     94 H94       -71.9894   23.1802  -74.3403 H         1 UNK         0.0784 
     95 H95       -72.6068   24.7225  -73.7545 H         1 UNK         0.0784 
     96 H96       -73.3521   24.5207  -76.1050 H         1 UNK         0.3213 
     97 H97       -73.4432   25.2322  -79.6194 H         1 UNK         0.0855 
     98 H98       -74.0735   22.7199  -77.9773 H         1 UNK         0.0814 
     99 H99       -73.0397   22.7853  -79.3974 H         1 UNK         0.0814 
    100 H100      -74.7563   23.1271  -79.5491 H         1 UNK         0.0814 
    101 H101      -75.4407   24.7630  -77.5691 H         1 UNK         0.3105 
    102 H102      -75.8680   28.1722  -76.6996 H         1 UNK         0.0547 
    103 H103      -78.2383   27.7610  -77.3348 H         1 UNK         0.0837 
    104 H104      -77.2588   28.0404  -78.7681 H         1 UNK         0.0837 
    105 H105      -77.7534   26.4041  -78.3494 H         1 UNK         0.0837 
    106 H106      -77.3632   25.9144  -75.9162 H         1 UNK         0.3020 
    107 H107      -75.2175   24.8236  -73.2579 H         1 UNK         0.1245 
    108 H108      -77.9971   26.0988  -73.4472 H         1 UNK         0.0781 
    109 H109      -76.6557   26.7532  -72.5727 H         1 UNK         0.0781 
    110 H110      -77.3015   25.3500  -69.1329 H         1 UNK         0.0836 
    111 H111      -75.9543   25.9300  -70.0793 H         1 UNK         0.0836 
    112 H112      -77.6315   23.7689  -74.3761 H         1 UNK         0.3022 
    113 H113      -76.0949   21.4630  -76.6308 H         1 UNK         0.0747 
    114 H114      -77.3890   19.8574  -75.2482 H         1 UNK         0.0793 
    115 H115      -75.9529   20.3796  -74.3842 H         1 UNK         0.0793 
    116 H116      -77.5220   21.0402  -73.9459 H         1 UNK         0.0793 
    117 H117      -78.8200   21.9583  -75.8668 H         1 UNK         0.3047 
    118 H118      -79.4975   24.4463  -78.3321 H         1 UNK         0.0822 
    119 H119      -81.2451   22.8146  -78.9638 H         1 UNK         0.0807 
    120 H120      -80.4170   21.5306  -78.0820 H         1 UNK         0.0807 
    121 H121      -79.6780   22.2436  -79.5090 H         1 UNK         0.0807 
    122 H122      -81.2635   23.3004  -76.4805 H         1 UNK         0.2946 
    123 H123      -82.0997   24.9613  -74.8824 H         1 UNK         0.1144 
    124 H124      -81.6709   23.8204  -72.6799 H         1 UNK         0.0793 
    125 H125      -79.9716   23.6240  -73.1020 H         1 UNK         0.0793 
    126 H126      -81.2148   22.7815  -74.0161 H         1 UNK         0.0793 
    127 H127      -80.3613   26.0338  -72.8339 H         1 UNK         0.2896 
@<TRIPOS>BOND
     1    1    2 1    
     2    1   67 1    
     3    1   68 1    
     4    1   69 1    
     5    2    3 2    
     6    2    4 am   BACKBONE|DICT|INTERRES
     7    4    5 1    
     8    4   70 1    
     9    5    6 1    
    10    5   65 1    
    11    5   71 1    
    12    6    7 1    
    13    6   72 1    
    14    6   73 1    
    15    7    8 1    
    16    8    9 1    
    17    8   74 1    
    18    8   75 1    
    19    9   10 ar   
    20    9   14 ar   
    21   10   11 ar   
    22   10   76 1    
    23   11   12 ar   
    24   11   48 1    
    25   12   13 ar   
    26   12   77 1    
    27   13   14 ar   
    28   13   15 1    
    29   14   78 1    
    30   15   16 1    
    31   15   79 1    
    32   15   80 1    
    33   16   17 1    
    34   17   18 1    
    35   17   81 1    
    36   17   82 1    
    37   18   19 1    
    38   18   22 1    
    39   18   83 1    
    40   19   20 am   BACKBONE|DICT|INTERRES
    41   19   21 2    
    42   20   84 1    
    43   20   85 1    
    44   22   23 am   BACKBONE|DICT|INTERRES
    45   22   86 1    
    46   23   24 2    
    47   23   25 1    
    48   25   26 1    
    49   25   27 1    
    50   25   87 1    
    51   26   88 1    
    52   26   89 1    
    53   26   90 1    
    54   27   28 am   BACKBONE|DICT|INTERRES
    55   27   91 1    
    56   28   29 2    
    57   28   30 1    
    58   30   31 1    
    59   30   32 1    
    60   30   92 1    
    61   31   93 1    
    62   31   94 1    
    63   31   95 1    
    64   32   33 am   BACKBONE|DICT|INTERRES
    65   32   96 1    
    66   33   34 2    
    67   33   35 1    
    68   35   36 1    
    69   35   37 1    
    70   35   97 1    
    71   36   98 1    
    72   36   99 1    
    73   36  100 1    
    74   37   38 am   BACKBONE|DICT|INTERRES
    75   37  101 1    
    76   38   39 2    
    77   38   40 1    
    78   40   41 1    
    79   40   42 1    
    80   40  102 1    
    81   41  103 1    
    82   41  104 1    
    83   41  105 1    
    84   42   43 am   BACKBONE|DICT|INTERRES
    85   42  106 1    
    86   43   44 2    
    87   43   45 1    
    88   45   46 1    
    89   45   49 1    
    90   45  107 1    
    91   46   47 1    
    92   46  108 1    
    93   46  109 1    
    94   47   48 1    
    95   48  110 1    
    96   48  111 1    
    97   49   50 am   BACKBONE|DICT|INTERRES
    98   49  112 1    
    99   50   51 2    
   100   50   52 1    
   101   52   53 1    
   102   52   54 1    
   103   52  113 1    
   104   53  114 1    
   105   53  115 1    
   106   53  116 1    
   107   54   55 am   BACKBONE|DICT|INTERRES
   108   54  117 1    
   109   55   56 2    
   110   55   57 1    
   111   57   58 1    
   112   57   59 1    
   113   57  118 1    
   114   58  119 1    
   115   58  120 1    
   116   58  121 1    
   117   59   60 am   BACKBONE|DICT|INTERRES
   118   59  122 1    
   119   60   61 2    
   120   60   62 1    
   121   62   63 1    
   122   62   64 1    
   123   62  123 1    
   124   63  124 1    
   125   63  125 1    
   126   63  126 1    
   127   64   65 am   BACKBONE|DICT|INTERRES
   128   64  127 1    
   129   65   66 2    
@<TRIPOS>SUBSTRUCTURE
     1 UNK         1 GROUP             0       ****    0 ROOT    
