@<TRIPOS>MOLECULE
3R135
127   129    1
SMALL
USER_CHARGES


@<TRIPOS>ATOM
      1 CA        -84.2538   28.6544  -73.6345 C.3       0 UNK        -0.1998 
      2 C         -83.2915   27.6868  -72.9622 C.2       0 UNK         0.4909 
      3 O         -83.7334   26.7501  -72.2972 O.2       0 UNK        -0.5240 
      4 N         -81.9795   27.9057  -73.1388 N.am      1 UNK        -0.4739 
      5 CA        -80.8816   27.0955  -72.5801 C.3       1 UNK         0.0864 
      6 C6        -80.9016   27.0422  -71.0234 C.3       11 UNK        -0.0881 
      7 S7        -79.2541   27.2292  -70.2555 S.3       11 UNK        -0.2682 
      8 C8        -79.1171   29.0324  -70.0167 C.3       11 UNK         0.0289 
      9 C9        -78.3949   29.7048  -71.1774 C.ar      11 UNK        -0.0687 
     10 C10       -79.0989   30.0876  -72.3218 C.ar      11 UNK        -0.0823 
     11 C11       -78.4394   30.6805  -73.4028 C.ar      11 UNK        -0.0830 
     12 C12       -77.0694   30.9450  -73.3068 C.ar      11 UNK        -0.1021 
     13 C13       -76.3582   30.6002  -72.1530 C.ar      11 UNK        -0.0753 
     14 C14       -77.0232   29.9661  -71.0984 C.ar      11 UNK        -0.0933 
     15 C15       -74.8807   30.9479  -72.0346 C.3       11 UNK         0.0166 
     16 S16       -73.8126   29.6785  -72.7778 S.3       11 UNK        -0.2615 
     17 C17       -73.9596   28.3233  -71.5610 C.3       11 UNK        -0.0865 
     18 CA        -72.7646   27.3346  -71.6151 C.3       10 UNK         0.0862 
     19 C         -72.8913   26.2438  -70.5165 C.2       10 UNK         0.5551 
     20 N         -72.4953   26.5580  -69.2906 N.am      10 UNK        -0.7319 
     21 O         -73.3758   25.1383  -70.7500 O.2       10 UNK        -0.5018 
     22 N         -72.6043   26.7809  -72.9635 N.am      10 UNK        -0.4509 
     23 C         -71.5563   26.0855  -73.4172 C.2       10 UNK         0.4899 
     24 O         -70.5809   25.7751  -72.7321 O.2       10 UNK        -0.4839 
     25 CA        -71.5782   25.7156  -74.9129 C.3       9 UNK         0.0222 
     26 CB        -72.2698   24.3608  -75.1314 C.3       9 UNK        -0.1966 
     27 N         -72.2267   26.7316  -75.7497 N.am      9 UNK        -0.4218 
     28 C         -71.7887   27.9904  -75.9087 C.2       9 UNK         0.5020 
     29 O         -70.7435   28.4187  -75.4136 O.2       9 UNK        -0.5274 
     30 CA        -72.6656   28.9148  -76.7779 C.3       8 UNK         0.0270 
     31 CB        -72.0101   30.2822  -77.0649 C.3       8 UNK        -0.1976 
     32 N         -73.1036   28.2783  -78.0257 N.am      8 UNK        -0.4313 
     33 C         -72.3315   27.7282  -78.9786 C.2       8 UNK         0.5041 
     34 O         -71.0997   27.7628  -78.9634 O.2       8 UNK        -0.5577 
     35 CA        -73.0428   27.0258  -80.1578 C.3       7 UNK         0.0284 
     36 CB        -72.2660   25.7854  -80.6503 C.3       7 UNK        -0.1958 
     37 N         -74.4508   26.6854  -79.9063 N.am      7 UNK        -0.4454 
     38 C         -74.9340   25.8741  -78.9546 C.2       7 UNK         0.5089 
     39 O         -74.2400   25.2604  -78.1420 O.2       7 UNK        -0.5125 
     40 CA        -76.4683   25.7987  -78.8600 C.3       6 UNK         0.0408 
     41 CB        -76.9560   24.3526  -79.0387 C.3       6 UNK        -0.1791 
     42 N         -76.9690   26.3264  -77.5881 N.am      6 UNK        -0.4762 
     43 C         -76.6875   27.5313  -77.0649 C.2       6 UNK         0.5007 
     44 O         -75.9830   28.3740  -77.6239 O.2       6 UNK        -0.5032 
     45 CA        -77.2712   27.8337  -75.6705 C.3       5 UNK         0.0783 
     46 C46       -78.6818   28.4685  -75.7656 C.3       11 UNK        -0.0857 
     47 S47       -78.5970   30.2479  -76.1706 S.3       11 UNK        -0.2512 
     48 C48       -79.2193   31.0587  -74.6573 C.3       11 UNK         0.0225 
     49 N         -77.2531   26.6345  -74.8259 N.am      5 UNK        -0.4615 
     50 C         -76.1400   26.1564  -74.2511 C.2       4 UNK         0.5053 
     51 O         -75.0425   26.7011  -74.3520 O.2       4 UNK        -0.5105 
     52 CA        -76.2568   24.8510  -73.4456 C.3       4 UNK         0.0263 
     53 CB        -76.6767   25.1383  -71.9991 C.3       4 UNK        -0.1981 
     54 N         -77.2065   23.9155  -74.0468 N.am      4 UNK        -0.4224 
     55 C         -76.9287   23.1603  -75.1196 C.2       3 UNK         0.4895 
     56 O         -75.8155   23.0995  -75.6396 O.2       3 UNK        -0.5091 
     57 CA        -78.0765   22.3337  -75.7313 C.3       3 UNK         0.0250 
     58 CB        -77.9798   20.8674  -75.2795 C.3       3 UNK        -0.1996 
     59 N         -79.4220   22.8369  -75.4380 N.am      3 UNK        -0.4254 
     60 C         -79.8909   24.0507  -75.7581 C.2       2 UNK         0.5004 
     61 O         -79.2215   24.9137  -76.3299 O.2       2 UNK        -0.5226 
     62 CA        -81.3304   24.3904  -75.3309 C.3       2 UNK         0.0269 
     63 CB        -82.1053   23.2165  -74.6879 C.3       2 UNK        -0.1926 
     64 N         -81.3562   25.5641  -74.4513 N.am      2 UNK        -0.4687 
     65 C         -80.7305   25.7181  -73.2717 C.2       1 UNK         0.5165 
     66 O         -80.0232   24.8466  -72.7636 O.2       1 UNK        -0.5079 
     67 H67       -84.8818   29.1377  -72.8865 H         1 UNK         0.0900 
     68 H68       -83.7311   29.4321  -74.1910 H         1 UNK         0.0900 
     69 H69       -84.9015   28.1184  -74.3277 H         1 UNK         0.0900 
     70 H70       -81.6955   28.6845  -73.7161 H         1 UNK         0.2959 
     71 H71       -79.9705   27.6132  -72.8687 H         1 UNK         0.1079 
     72 H72       -81.5428   27.8263  -70.6188 H         1 UNK         0.0837 
     73 H73       -81.3477   26.1102  -70.6711 H         1 UNK         0.0837 
     74 H74       -80.1023   29.4780  -69.8731 H         1 UNK         0.0685 
     75 H75       -78.5714   29.2144  -69.0897 H         1 UNK         0.0685 
     76 H76       -80.1646   29.9175  -72.3677 H         1 UNK         0.1434 
     77 H77       -76.5573   31.4247  -74.1300 H         1 UNK         0.1329 
     78 H78       -76.4759   29.6901  -70.2076 H         1 UNK         0.1335 
     79 H79       -74.6900   31.8980  -72.5360 H         1 UNK         0.0680 
     80 H80       -74.6030   31.0991  -70.9903 H         1 UNK         0.0680 
     81 H81       -74.0403   28.7572  -70.5629 H         1 UNK         0.1032 
     82 H82       -74.9013   27.8062  -71.7464 H         1 UNK         0.1032 
     83 H83       -71.8544   27.9000  -71.4050 H         1 UNK         0.0461 
     84 H84       -72.0987   27.4616  -69.0839 H         1 UNK         0.3453 
     85 H85       -72.5805   25.8702  -68.5587 H         1 UNK         0.3453 
     86 H86       -73.3941   26.9258  -73.5890 H         1 UNK         0.2984 
     87 H87       -70.5424   25.6267  -75.2464 H         1 UNK         0.0554 
     88 H88       -71.8069   23.5813  -74.5250 H         1 UNK         0.0847 
     89 H89       -72.2046   24.0452  -76.1730 H         1 UNK         0.0847 
     90 H90       -73.3262   24.3995  -74.8643 H         1 UNK         0.0847 
     91 H91       -73.0928   26.4614  -76.1986 H         1 UNK         0.3141 
     92 H92       -73.5704   29.1007  -76.1964 H         1 UNK         0.0743 
     93 H93       -71.0762   30.1750  -77.6176 H         1 UNK         0.0784 
     94 H94       -72.6724   30.9249  -77.6447 H         1 UNK         0.0784 
     95 H95       -71.7818   30.8070  -76.1363 H         1 UNK         0.0784 
     96 H96       -74.1133   28.2034  -78.1271 H         1 UNK         0.3213 
     97 H97       -73.0499   27.7525  -80.9717 H         1 UNK         0.0855 
     98 H98       -72.1501   25.0416  -79.8612 H         1 UNK         0.0814 
     99 H99       -71.2651   26.0568  -80.9881 H         1 UNK         0.0814 
    100 H100      -72.7697   25.3081  -81.4908 H         1 UNK         0.0814 
    101 H101      -75.1195   27.1707  -80.4897 H         1 UNK         0.3105 
    102 H102      -76.9077   26.4044  -79.6550 H         1 UNK         0.0547 
    103 H103      -76.6613   23.9600  -80.0126 H         1 UNK         0.0837 
    104 H104      -76.5319   23.6923  -78.2819 H         1 UNK         0.0837 
    105 H105      -78.0422   24.2848  -78.9748 H         1 UNK         0.0837 
    106 H106      -77.5938   25.7192  -77.0652 H         1 UNK         0.3020 
    107 H107      -76.6069   28.5636  -75.1993 H         1 UNK         0.1245 
    108 H108      -79.2050   28.3626  -74.8188 H         1 UNK         0.0781 
    109 H109      -79.3042   27.9566  -76.5025 H         1 UNK         0.0781 
    110 H110      -80.2783   30.8221  -74.5457 H         1 UNK         0.0836 
    111 H111      -79.1639   32.1397  -74.7925 H         1 UNK         0.0836 
    112 H112      -78.0979   26.0805  -74.8006 H         1 UNK         0.3022 
    113 H113      -75.2704   24.3833  -73.4173 H         1 UNK         0.0747 
    114 H114      -75.9515   25.7762  -71.4966 H         1 UNK         0.0793 
    115 H115      -77.6385   25.6449  -71.9595 H         1 UNK         0.0793 
    116 H116      -76.7551   24.2206  -71.4163 H         1 UNK         0.0793 
    117 H117      -78.1466   23.9092  -73.6689 H         1 UNK         0.3047 
    118 H118      -77.9507   22.3640  -76.8151 H         1 UNK         0.0822 
    119 H119      -78.7197   20.2454  -75.7837 H         1 UNK         0.0807 
    120 H120      -78.1299   20.7659  -74.2039 H         1 UNK         0.0807 
    121 H121      -76.9985   20.4509  -75.5120 H         1 UNK         0.0807 
    122 H122      -80.0377   22.2094  -74.9412 H         1 UNK         0.2946 
    123 H123      -81.8536   24.6707  -76.2467 H         1 UNK         0.1144 
    124 H124      -83.1295   23.5102  -74.4569 H         1 UNK         0.0793 
    125 H125      -81.6487   22.8754  -73.7580 H         1 UNK         0.0793 
    126 H126      -82.1677   22.3634  -75.3650 H         1 UNK         0.0793 
    127 H127      -81.8879   26.3512  -74.7946 H         1 UNK         0.2896 
@<TRIPOS>BOND
     1    1    2 1    
     2    1   67 1    
     3    1   68 1    
     4    1   69 1    
     5    2    3 2    
     6    2    4 am   BACKBONE|DICT|INTERRES
     7    4    5 1    
     8    4   70 1    
     9    5    6 1    
    10    5   65 1    
    11    5   71 1    
    12    6    7 1    
    13    6   72 1    
    14    6   73 1    
    15    7    8 1    
    16    8    9 1    
    17    8   74 1    
    18    8   75 1    
    19    9   10 ar   
    20    9   14 ar   
    21   10   11 ar   
    22   10   76 1    
    23   11   12 ar   
    24   11   48 1    
    25   12   13 ar   
    26   12   77 1    
    27   13   14 ar   
    28   13   15 1    
    29   14   78 1    
    30   15   16 1    
    31   15   79 1    
    32   15   80 1    
    33   16   17 1    
    34   17   18 1    
    35   17   81 1    
    36   17   82 1    
    37   18   19 1    
    38   18   22 1    
    39   18   83 1    
    40   19   20 am   BACKBONE|DICT|INTERRES
    41   19   21 2    
    42   20   84 1    
    43   20   85 1    
    44   22   23 am   BACKBONE|DICT|INTERRES
    45   22   86 1    
    46   23   24 2    
    47   23   25 1    
    48   25   26 1    
    49   25   27 1    
    50   25   87 1    
    51   26   88 1    
    52   26   89 1    
    53   26   90 1    
    54   27   28 am   BACKBONE|DICT|INTERRES
    55   27   91 1    
    56   28   29 2    
    57   28   30 1    
    58   30   31 1    
    59   30   32 1    
    60   30   92 1    
    61   31   93 1    
    62   31   94 1    
    63   31   95 1    
    64   32   33 am   BACKBONE|DICT|INTERRES
    65   32   96 1    
    66   33   34 2    
    67   33   35 1    
    68   35   36 1    
    69   35   37 1    
    70   35   97 1    
    71   36   98 1    
    72   36   99 1    
    73   36  100 1    
    74   37   38 am   BACKBONE|DICT|INTERRES
    75   37  101 1    
    76   38   39 2    
    77   38   40 1    
    78   40   41 1    
    79   40   42 1    
    80   40  102 1    
    81   41  103 1    
    82   41  104 1    
    83   41  105 1    
    84   42   43 am   BACKBONE|DICT|INTERRES
    85   42  106 1    
    86   43   44 2    
    87   43   45 1    
    88   45   46 1    
    89   45   49 1    
    90   45  107 1    
    91   46   47 1    
    92   46  108 1    
    93   46  109 1    
    94   47   48 1    
    95   48  110 1    
    96   48  111 1    
    97   49   50 am   BACKBONE|DICT|INTERRES
    98   49  112 1    
    99   50   51 2    
   100   50   52 1    
   101   52   53 1    
   102   52   54 1    
   103   52  113 1    
   104   53  114 1    
   105   53  115 1    
   106   53  116 1    
   107   54   55 am   BACKBONE|DICT|INTERRES
   108   54  117 1    
   109   55   56 2    
   110   55   57 1    
   111   57   58 1    
   112   57   59 1    
   113   57  118 1    
   114   58  119 1    
   115   58  120 1    
   116   58  121 1    
   117   59   60 am   BACKBONE|DICT|INTERRES
   118   59  122 1    
   119   60   61 2    
   120   60   62 1    
   121   62   63 1    
   122   62   64 1    
   123   62  123 1    
   124   63  124 1    
   125   63  125 1    
   126   63  126 1    
   127   64   65 am   BACKBONE|DICT|INTERRES
   128   64  127 1    
   129   65   66 2    
@<TRIPOS>SUBSTRUCTURE
     1 UNK         1 GROUP             0       ****    0 ROOT    
