@<TRIPOS>MOLECULE
3R135
127   129    1
SMALL
USER_CHARGES


@<TRIPOS>ATOM
      1 CA        -81.5521   24.7714  -72.1552 C.3       0 UNK        -0.1998 
      2 C         -82.5498   25.8345  -72.5881 C.2       0 UNK         0.4909 
      3 O         -83.6831   25.8405  -72.1080 O.2       0 UNK        -0.5240 
      4 N         -82.1437   26.7206  -73.5051 N.am      1 UNK        -0.4739 
      5 CA        -82.9601   27.8263  -74.0364 C.3       1 UNK         0.0864 
      6 C6        -82.1721   29.1666  -74.1287 C.3       11 UNK        -0.0881 
      7 S7        -81.1466   29.5431  -72.6642 S.3       11 UNK        -0.2682 
      8 C8        -79.4973   29.1843  -73.3559 C.3       11 UNK         0.0289 
      9 C9        -78.5050   28.6656  -72.3255 C.ar      11 UNK        -0.0687 
     10 C10       -78.8390   27.5963  -71.4881 C.ar      11 UNK        -0.0823 
     11 C11       -77.9002   27.0709  -70.5962 C.ar      11 UNK        -0.0830 
     12 C12       -76.6169   27.6210  -70.5442 C.ar      11 UNK        -0.1021 
     13 C13       -76.2659   28.6749  -71.3904 C.ar      11 UNK        -0.0753 
     14 C14       -77.2142   29.1993  -72.2725 C.ar      11 UNK        -0.0933 
     15 C15       -74.8501   29.2202  -71.3819 C.3       11 UNK         0.0166 
     16 S16       -73.8051   28.2422  -72.4986 S.3       11 UNK        -0.2615 
     17 C17       -72.3210   29.2971  -72.5929 C.3       11 UNK        -0.0865 
     18 CA        -72.3999   30.3672  -73.7140 C.3       10 UNK         0.0862 
     19 C         -71.1061   31.2347  -73.7247 C.2       10 UNK         0.5551 
     20 N         -70.2573   31.1570  -74.7438 N.am      10 UNK        -0.7319 
     21 O         -70.8719   31.9932  -72.7872 O.2       10 UNK        -0.5018 
     22 N         -72.7500   29.7884  -75.0224 N.am      10 UNK        -0.4509 
     23 C         -73.1959   30.4975  -76.0676 C.2       10 UNK         0.4899 
     24 O         -73.4916   31.6916  -75.9961 O.2       10 UNK        -0.4839 
     25 CA        -73.3358   29.7648  -77.4210 C.3       9 UNK         0.0222 
     26 CB        -73.0559   30.7054  -78.6120 C.3       9 UNK        -0.1966 
     27 N         -72.5389   28.5361  -77.5631 N.am      9 UNK        -0.4218 
     28 C         -71.2150   28.3814  -77.4176 C.2       9 UNK         0.5020 
     29 O         -70.4657   29.2801  -77.0284 O.2       9 UNK        -0.5274 
     30 CA        -70.6347   26.9887  -77.7532 C.3       8 UNK         0.0270 
     31 CB        -69.1794   26.8292  -77.2736 C.3       8 UNK        -0.1976 
     32 N         -71.4209   25.8639  -77.2318 N.am      8 UNK        -0.4313 
     33 C         -72.6026   25.4266  -77.6817 C.2       8 UNK         0.5041 
     34 O         -73.2304   25.9878  -78.5800 O.2       8 UNK        -0.5577 
     35 CA        -73.2096   24.1840  -77.0058 C.3       7 UNK         0.0284 
     36 CB        -72.6018   22.8875  -77.5751 C.3       7 UNK        -0.1958 
     37 N         -73.1703   24.2052  -75.5358 N.am      7 UNK        -0.4454 
     38 C         -72.1085   24.1602  -74.7151 C.2       7 UNK         0.5089 
     39 O         -70.9465   24.0813  -75.1164 O.2       7 UNK        -0.5125 
     40 CA        -72.3616   24.2737  -73.1987 C.3       6 UNK         0.0408 
     41 CB        -71.5050   25.3987  -72.5956 C.3       6 UNK        -0.1791 
     42 N         -73.7717   24.5153  -72.8724 N.am      6 UNK        -0.4762 
     43 C         -74.6723   23.5486  -72.6421 C.2       6 UNK         0.5007 
     44 O         -74.3933   22.3494  -72.6222 O.2       6 UNK        -0.5032 
     45 CA        -76.1382   23.9829  -72.4327 C.3       5 UNK         0.0783 
     46 C46       -76.4594   24.0882  -70.9223 C.3       11 UNK        -0.0857 
     47 S47       -78.2408   24.3222  -70.6059 S.3       11 UNK        -0.2512 
     48 C48       -78.2720   25.9008  -69.6999 C.3       11 UNK         0.0225 
     49 N         -76.4981   25.1956  -73.1868 N.am      5 UNK        -0.4615 
     50 C         -76.5236   25.2587  -74.5251 C.2       4 UNK         0.5053 
     51 O         -76.1579   24.3364  -75.2561 O.2       4 UNK        -0.5105 
     52 CA        -76.9980   26.5686  -75.1704 C.3       4 UNK         0.0263 
     53 CB        -75.8084   27.3588  -75.7386 C.3       4 UNK        -0.1981 
     54 N         -77.9413   26.2839  -76.2532 N.am      4 UNK        -0.4224 
     55 C         -79.2157   25.9258  -76.0616 C.2       3 UNK         0.4895 
     56 O         -79.7697   25.9249  -74.9570 O.2       3 UNK        -0.5091 
     57 CA        -80.0037   25.4873  -77.3055 C.3       3 UNK         0.0250 
     58 CB        -79.5345   24.1094  -77.8086 C.3       3 UNK        -0.1996 
     59 N         -81.4100   25.4267  -76.9297 N.am      3 UNK        -0.4254 
     60 C         -82.4826   25.5122  -77.7249 C.2       2 UNK         0.5004 
     61 O         -82.4290   25.5677  -78.9536 O.2       2 UNK        -0.5226 
     62 CA        -83.8501   25.5684  -77.0123 C.3       2 UNK         0.0269 
     63 CB        -84.4695   24.1647  -76.9190 C.3       2 UNK        -0.1926 
     64 N         -83.7258   26.1349  -75.6635 N.am      2 UNK        -0.4687 
     65 C         -83.5496   27.4416  -75.4142 C.2       1 UNK         0.5165 
     66 O         -83.7652   28.3153  -76.2563 O.2       1 UNK        -0.5079 
     67 H67       -81.9268   23.7789  -72.4031 H         1 UNK         0.0900 
     68 H68       -81.3986   24.8184  -71.0774 H         1 UNK         0.0900 
     69 H69       -80.5834   24.8976  -72.6381 H         1 UNK         0.0900 
     70 H70       -81.2100   26.6310  -73.8987 H         1 UNK         0.2959 
     71 H71       -83.8122   27.9987  -73.3755 H         1 UNK         0.1079 
     72 H72       -81.5379   29.1852  -75.0175 H         1 UNK         0.0837 
     73 H73       -82.8723   29.9936  -74.2604 H         1 UNK         0.0837 
     74 H74       -79.1230   30.0870  -73.8410 H         1 UNK         0.0685 
     75 H75       -79.5789   28.4292  -74.1364 H         1 UNK         0.0685 
     76 H76       -79.8279   27.1630  -71.5408 H         1 UNK         0.1434 
     77 H77       -75.8808   27.2167  -69.8626 H         1 UNK         0.1329 
     78 H78       -76.9349   30.0040  -72.9391 H         1 UNK         0.1335 
     79 H79       -74.8484   30.2655  -71.6944 H         1 UNK         0.0680 
     80 H80       -74.4357   29.1930  -70.3729 H         1 UNK         0.0680 
     81 H81       -72.1640   29.7698  -71.6211 H         1 UNK         0.1032 
     82 H82       -71.4547   28.6531  -72.7505 H         1 UNK         0.1032 
     83 H83       -73.2100   31.0479  -73.4452 H         1 UNK         0.0461 
     84 H84       -69.4262   31.7259  -74.7375 H         1 UNK         0.3453 
     85 H85       -70.4295   30.5248  -75.5203 H         1 UNK         0.3453 
     86 H86       -72.5251   28.8153  -75.1574 H         1 UNK         0.2984 
     87 H87       -74.3789   29.4544  -77.4867 H         1 UNK         0.0554 
     88 H88       -73.1896   30.1919  -79.5640 H         1 UNK         0.0847 
     89 H89       -72.0387   31.0979  -78.5827 H         1 UNK         0.0847 
     90 H90       -73.7348   31.5591  -78.6115 H         1 UNK         0.0847 
     91 H91       -73.0395   27.7185  -77.9083 H         1 UNK         0.3141 
     92 H92       -70.6321   26.9136  -78.8425 H         1 UNK         0.0743 
     93 H93       -68.5355   27.5981  -77.7029 H         1 UNK         0.0784 
     94 H94       -69.1041   26.9070  -76.1881 H         1 UNK         0.0784 
     95 H95       -68.7666   25.8647  -77.5702 H         1 UNK         0.0784 
     96 H96       -71.0071   25.3301  -76.4693 H         1 UNK         0.3213 
     97 H97       -74.2697   24.1819  -77.2652 H         1 UNK         0.0855 
     98 H98       -71.5322   22.8119  -77.3780 H         1 UNK         0.0814 
     99 H99       -72.7339   22.8405  -78.6569 H         1 UNK         0.0814 
    100 H100      -73.0838   22.0062  -77.1520 H         1 UNK         0.0814 
    101 H101      -74.0864   24.2686  -75.1048 H         1 UNK         0.3105 
    102 H102      -72.0392   23.3342  -72.7453 H         1 UNK         0.0547 
    103 H103      -71.6480   26.3370  -73.1291 H         1 UNK         0.0837 
    104 H104      -71.7380   25.5653  -71.5438 H         1 UNK         0.0837 
    105 H105      -70.4436   25.1548  -72.6567 H         1 UNK         0.0837 
    106 H106      -74.0808   25.4785  -72.8651 H         1 UNK         0.3020 
    107 H107      -76.7481   23.1719  -72.8390 H         1 UNK         0.1245 
    108 H108      -75.8800   24.8870  -70.4587 H         1 UNK         0.0781 
    109 H109      -76.1656   23.1714  -70.4068 H         1 UNK         0.0781 
    110 H110      -79.2743   26.0564  -69.2979 H         1 UNK         0.0836 
    111 H111      -77.6056   25.8416  -68.8378 H         1 UNK         0.0836 
    112 H112      -76.8168   25.9848  -72.6401 H         1 UNK         0.3022 
    113 H113      -77.4926   27.1784  -74.4153 H         1 UNK         0.0747 
    114 H114      -75.0702   27.5682  -74.9666 H         1 UNK         0.0793 
    115 H115      -76.1326   28.3180  -76.1419 H         1 UNK         0.0793 
    116 H116      -75.3000   26.8125  -76.5340 H         1 UNK         0.0793 
    117 H117      -77.5517   26.2200  -77.1824 H         1 UNK         0.3047 
    118 H118      -79.8717   26.2387  -78.0868 H         1 UNK         0.0822 
    119 H119      -78.4833   24.1297  -78.0983 H         1 UNK         0.0807 
    120 H120      -80.1026   23.7910  -78.6829 H         1 UNK         0.0807 
    121 H121      -79.6464   23.3429  -77.0405 H         1 UNK         0.0807 
    122 H122      -81.5471   25.4217  -75.9276 H         1 UNK         0.2946 
    123 H123      -84.5115   26.2013  -77.6089 H         1 UNK         0.1144 
    124 H124      -83.8470   23.4839  -76.3370 H         1 UNK         0.0793 
    125 H125      -84.5920   23.7272  -77.9108 H         1 UNK         0.0793 
    126 H126      -85.4561   24.1970  -76.4563 H         1 UNK         0.0793 
    127 H127      -83.5737   25.4862  -74.9043 H         1 UNK         0.2896 
@<TRIPOS>BOND
     1    1    2 1    
     2    1   67 1    
     3    1   68 1    
     4    1   69 1    
     5    2    3 2    
     6    2    4 am   BACKBONE|DICT|INTERRES
     7    4    5 1    
     8    4   70 1    
     9    5    6 1    
    10    5   65 1    
    11    5   71 1    
    12    6    7 1    
    13    6   72 1    
    14    6   73 1    
    15    7    8 1    
    16    8    9 1    
    17    8   74 1    
    18    8   75 1    
    19    9   10 ar   
    20    9   14 ar   
    21   10   11 ar   
    22   10   76 1    
    23   11   12 ar   
    24   11   48 1    
    25   12   13 ar   
    26   12   77 1    
    27   13   14 ar   
    28   13   15 1    
    29   14   78 1    
    30   15   16 1    
    31   15   79 1    
    32   15   80 1    
    33   16   17 1    
    34   17   18 1    
    35   17   81 1    
    36   17   82 1    
    37   18   19 1    
    38   18   22 1    
    39   18   83 1    
    40   19   20 am   BACKBONE|DICT|INTERRES
    41   19   21 2    
    42   20   84 1    
    43   20   85 1    
    44   22   23 am   BACKBONE|DICT|INTERRES
    45   22   86 1    
    46   23   24 2    
    47   23   25 1    
    48   25   26 1    
    49   25   27 1    
    50   25   87 1    
    51   26   88 1    
    52   26   89 1    
    53   26   90 1    
    54   27   28 am   BACKBONE|DICT|INTERRES
    55   27   91 1    
    56   28   29 2    
    57   28   30 1    
    58   30   31 1    
    59   30   32 1    
    60   30   92 1    
    61   31   93 1    
    62   31   94 1    
    63   31   95 1    
    64   32   33 am   BACKBONE|DICT|INTERRES
    65   32   96 1    
    66   33   34 2    
    67   33   35 1    
    68   35   36 1    
    69   35   37 1    
    70   35   97 1    
    71   36   98 1    
    72   36   99 1    
    73   36  100 1    
    74   37   38 am   BACKBONE|DICT|INTERRES
    75   37  101 1    
    76   38   39 2    
    77   38   40 1    
    78   40   41 1    
    79   40   42 1    
    80   40  102 1    
    81   41  103 1    
    82   41  104 1    
    83   41  105 1    
    84   42   43 am   BACKBONE|DICT|INTERRES
    85   42  106 1    
    86   43   44 2    
    87   43   45 1    
    88   45   46 1    
    89   45   49 1    
    90   45  107 1    
    91   46   47 1    
    92   46  108 1    
    93   46  109 1    
    94   47   48 1    
    95   48  110 1    
    96   48  111 1    
    97   49   50 am   BACKBONE|DICT|INTERRES
    98   49  112 1    
    99   50   51 2    
   100   50   52 1    
   101   52   53 1    
   102   52   54 1    
   103   52  113 1    
   104   53  114 1    
   105   53  115 1    
   106   53  116 1    
   107   54   55 am   BACKBONE|DICT|INTERRES
   108   54  117 1    
   109   55   56 2    
   110   55   57 1    
   111   57   58 1    
   112   57   59 1    
   113   57  118 1    
   114   58  119 1    
   115   58  120 1    
   116   58  121 1    
   117   59   60 am   BACKBONE|DICT|INTERRES
   118   59  122 1    
   119   60   61 2    
   120   60   62 1    
   121   62   63 1    
   122   62   64 1    
   123   62  123 1    
   124   63  124 1    
   125   63  125 1    
   126   63  126 1    
   127   64   65 am   BACKBONE|DICT|INTERRES
   128   64  127 1    
   129   65   66 2    
@<TRIPOS>SUBSTRUCTURE
     1 UNK         1 GROUP             0       ****    0 ROOT    
