@<TRIPOS>MOLECULE
3R135
127   129    1
SMALL
USER_CHARGES


@<TRIPOS>ATOM
      1 CA        -77.0897   25.9757  -73.5934 C.3       0 UNK        -0.1998 
      2 C         -77.9973   26.0877  -72.3805 C.2       0 UNK         0.4909 
      3 O         -77.8447   25.3223  -71.4279 O.2       0 UNK        -0.5240 
      4 N         -78.9447   27.0327  -72.4122 N.am      1 UNK        -0.4739 
      5 CA        -79.9511   27.2616  -71.3715 C.3       1 UNK         0.0864 
      6 C6        -80.7206   28.5836  -71.6060 C.3       11 UNK        -0.0881 
      7 S7        -79.6288   30.0370  -71.4592 S.3       11 UNK        -0.2682 
      8 C8        -79.9498   30.9157  -73.0213 C.3       11 UNK         0.0289 
      9 C9        -79.2104   30.3125  -74.2094 C.ar      11 UNK        -0.0687 
     10 C10       -79.9182   29.7958  -75.2991 C.ar      11 UNK        -0.0823 
     11 C11       -79.2424   29.3499  -76.4403 C.ar      11 UNK        -0.0830 
     12 C12       -77.8435   29.3860  -76.4689 C.ar      11 UNK        -0.1021 
     13 C13       -77.1229   29.8868  -75.3789 C.ar      11 UNK        -0.0753 
     14 C14       -77.8141   30.3538  -74.2570 C.ar      11 UNK        -0.0933 
     15 C15       -75.6035   29.9812  -75.4378 C.3       11 UNK         0.0166 
     16 S16       -74.8015   28.5197  -74.7101 S.3       11 UNK        -0.2615 
     17 C17       -74.9417   28.8606  -72.9130 C.3       11 UNK        -0.0865 
     18 CA        -73.6213   28.6446  -72.1283 C.3       10 UNK         0.0862 
     19 C         -73.2440   27.1357  -72.0279 C.2       10 UNK         0.5551 
     20 N         -72.1230   26.6890  -72.5818 N.am      10 UNK        -0.7319 
     21 O         -73.9817   26.3605  -71.4262 O.2       10 UNK        -0.5018 
     22 N         -72.5657   29.5359  -72.6288 N.am      10 UNK        -0.4509 
     23 C         -71.4095   29.8266  -72.0231 C.2       10 UNK         0.4899 
     24 O         -71.1070   29.4229  -70.8994 O.2       10 UNK        -0.4839 
     25 CA        -70.4194   30.6932  -72.8338 C.3       9 UNK         0.0222 
     26 CB        -69.0740   30.8903  -72.1100 C.3       9 UNK        -0.1966 
     27 N         -70.1661   30.1369  -74.1698 N.am      9 UNK        -0.4218 
     28 C         -71.0108   30.1974  -75.2081 C.2       9 UNK         0.5020 
     29 O         -72.0874   30.7988  -75.1637 O.2       9 UNK        -0.5274 
     30 CA        -70.6362   29.4226  -76.4803 C.3       8 UNK         0.0270 
     31 CB        -69.7085   28.2140  -76.2303 C.3       8 UNK        -0.1976 
     32 N         -71.8766   28.9683  -77.1012 N.am      8 UNK        -0.4313 
     33 C         -72.0979   28.8284  -78.4105 C.2       8 UNK         0.5041 
     34 O         -71.2479   29.0393  -79.2786 O.2       8 UNK        -0.5577 
     35 CA        -73.5189   28.3741  -78.7978 C.3       7 UNK         0.0284 
     36 CB        -73.6601   28.0362  -80.2975 C.3       7 UNK        -0.1958 
     37 N         -74.0076   27.2646  -77.9663 N.am      7 UNK        -0.4454 
     38 C         -73.4773   26.0358  -77.8506 C.2       7 UNK         0.5089 
     39 O         -72.4458   25.6702  -78.4149 O.2       7 UNK        -0.5125 
     40 CA        -74.2315   25.0266  -76.9592 C.3       6 UNK         0.0408 
     41 CB        -73.5398   24.8973  -75.5919 C.3       6 UNK        -0.1791 
     42 N         -75.6544   25.3281  -76.7518 N.am      6 UNK        -0.4762 
     43 C         -76.5859   25.3645  -77.7175 C.2       6 UNK         0.5007 
     44 O         -76.3411   25.1591  -78.9075 O.2       6 UNK        -0.5032 
     45 CA        -78.0226   25.7002  -77.2659 C.3       5 UNK         0.0783 
     46 C46       -78.8190   26.4540  -78.3601 C.3       11 UNK        -0.0857 
     47 S47       -80.3801   27.1317  -77.7004 S.3       11 UNK        -0.2512 
     48 C48       -80.0335   28.9184  -77.6700 C.3       11 UNK         0.0225 
     49 N         -78.7363   24.5208  -76.7563 N.am      5 UNK        -0.4615 
     50 C         -79.0134   23.3766  -77.3964 C.2       4 UNK         0.5053 
     51 O         -78.5992   23.0960  -78.5216 O.2       4 UNK        -0.5105 
     52 CA        -79.9434   22.3854  -76.6601 C.3       4 UNK         0.0263 
     53 CB        -80.1823   21.0901  -77.4602 C.3       4 UNK        -0.1981 
     54 N         -79.4909   22.0244  -75.3116 N.am      4 UNK        -0.4224 
     55 C         -79.5558   22.8102  -74.2302 C.2       3 UNK         0.4895 
     56 O         -79.9187   23.9886  -74.2678 O.2       3 UNK        -0.5091 
     57 CA        -79.1145   22.1792  -72.8997 C.3       3 UNK         0.0250 
     58 CB        -77.5810   22.1014  -72.8046 C.3       3 UNK        -0.1996 
     59 N         -79.6292   22.9560  -71.7710 N.am      3 UNK        -0.4254 
     60 C         -80.8648   22.8286  -71.2649 C.2       2 UNK         0.5004 
     61 O         -81.6556   21.9475  -71.6057 O.2       2 UNK        -0.5226 
     62 CA        -81.3015   23.8516  -70.2000 C.3       2 UNK         0.0269 
     63 CB        -81.0543   23.2981  -68.7872 C.3       2 UNK        -0.1926 
     64 N         -80.6149   25.1378  -70.3410 N.am      2 UNK        -0.4687 
     65 C         -80.9105   26.0566  -71.2710 C.2       1 UNK         0.5165 
     66 O         -81.8720   25.9704  -72.0374 O.2       1 UNK        -0.5079 
     67 H67       -76.0506   25.8831  -73.2785 H         1 UNK         0.0900 
     68 H68       -77.1788   26.8533  -74.2320 H         1 UNK         0.0900 
     69 H69       -77.3521   25.0921  -74.1716 H         1 UNK         0.0900 
     70 H70       -79.0227   27.6341  -73.2200 H         1 UNK         0.2959 
     71 H71       -79.4272   27.3498  -70.4168 H         1 UNK         0.1079 
     72 H72       -81.2075   28.5769  -72.5833 H         1 UNK         0.0837 
     73 H73       -81.5186   28.6986  -70.8698 H         1 UNK         0.0837 
     74 H74       -81.0252   30.9544  -73.2023 H         1 UNK         0.0685 
     75 H75       -79.6280   31.9515  -72.9047 H         1 UNK         0.0685 
     76 H76       -80.9997   29.7860  -75.2807 H         1 UNK         0.1434 
     77 H77       -77.3162   29.0594  -77.3542 H         1 UNK         0.1329 
     78 H78       -77.2706   30.7774  -73.4245 H         1 UNK         0.1335 
     79 H79       -75.2796   30.0754  -76.4748 H         1 UNK         0.0680 
     80 H80       -75.2544   30.8853  -74.9362 H         1 UNK         0.0680 
     81 H81       -75.7447   28.2544  -72.4928 H         1 UNK         0.1032 
     82 H82       -75.2594   29.8925  -72.7655 H         1 UNK         0.1032 
     83 H83       -73.8139   28.9553  -71.0997 H         1 UNK         0.0461 
     84 H84       -71.8868   25.7136  -72.4982 H         1 UNK         0.3453 
     85 H85       -71.5045   27.3231  -73.0578 H         1 UNK         0.3453 
     86 H86       -72.7111   29.9164  -73.5594 H         1 UNK         0.2984 
     87 H87       -70.8783   31.6775  -72.9486 H         1 UNK         0.0554 
     88 H88       -68.5580   29.9429  -71.9485 H         1 UNK         0.0847 
     89 H89       -69.2194   31.3527  -71.1327 H         1 UNK         0.0847 
     90 H90       -68.4095   31.5428  -72.6767 H         1 UNK         0.0847 
     91 H91       -69.3168   29.6011  -74.2783 H         1 UNK         0.3141 
     92 H92       -70.1340   30.1282  -77.1454 H         1 UNK         0.0743 
     93 H93       -70.1343   27.5197  -75.5045 H         1 UNK         0.0784 
     94 H94       -69.5353   27.6572  -77.1517 H         1 UNK         0.0784 
     95 H95       -68.7294   28.5263  -75.8656 H         1 UNK         0.0784 
     96 H96       -72.6530   28.8500  -76.4630 H         1 UNK         0.3213 
     97 H97       -74.1727   29.2236  -78.5948 H         1 UNK         0.0855 
     98 H98       -73.4170   28.9003  -80.9171 H         1 UNK         0.0814 
     99 H99       -74.6795   27.7379  -80.5424 H         1 UNK         0.0814 
    100 H100      -72.9935   27.2262  -80.5951 H         1 UNK         0.0814 
    101 H101      -74.8390   27.4512  -77.4251 H         1 UNK         0.3105 
    102 H102      -74.1752   24.0567  -77.4579 H         1 UNK         0.0547 
    103 H103      -73.9992   24.1186  -74.9830 H         1 UNK         0.0837 
    104 H104      -73.5759   25.8294  -75.0285 H         1 UNK         0.0837 
    105 H105      -72.4879   24.6334  -75.7102 H         1 UNK         0.0837 
    106 H106      -75.9309   25.5022  -75.7977 H         1 UNK         0.3020 
    107 H107      -77.9308   26.3880  -76.4254 H         1 UNK         0.1245 
    108 H108      -79.0548   25.7904  -79.1939 H         1 UNK         0.0781 
    109 H109      -78.2245   27.2641  -78.7855 H         1 UNK         0.0781 
    110 H110      -80.9864   29.4494  -77.6933 H         1 UNK         0.0836 
    111 H111      -79.5138   29.2158  -78.5820 H         1 UNK         0.0836 
    112 H112      -79.1474   24.6165  -75.8301 H         1 UNK         0.3022 
    113 H113      -80.9088   22.8876  -76.5647 H         1 UNK         0.0747 
    114 H114      -80.8998   20.4396  -76.9596 H         1 UNK         0.0793 
    115 H115      -80.5867   21.3086  -78.4497 H         1 UNK         0.0793 
    116 H116      -79.2588   20.5271  -77.6019 H         1 UNK         0.0793 
    117 H117      -79.1351   21.0853  -75.2024 H         1 UNK         0.3047 
    118 H118      -79.5160   21.1645  -72.8496 H         1 UNK         0.0822 
    119 H119      -77.2691   21.6302  -71.8723 H         1 UNK         0.0807 
    120 H120      -77.1167   23.0859  -72.8473 H         1 UNK         0.0807 
    121 H121      -77.1628   21.5090  -73.6192 H         1 UNK         0.0807 
    122 H122      -79.0669   23.7517  -71.4839 H         1 UNK         0.2946 
    123 H123      -82.3754   24.0125  -70.3227 H         1 UNK         0.1144 
    124 H124      -81.5738   22.3494  -68.6442 H         1 UNK         0.0793 
    125 H125      -81.4195   23.9841  -68.0227 H         1 UNK         0.0793 
    126 H126      -79.9942   23.1204  -68.6019 H         1 UNK         0.0793 
    127 H127      -79.7778   25.2664  -69.7888 H         1 UNK         0.2896 
@<TRIPOS>BOND
     1    1    2 1    
     2    1   67 1    
     3    1   68 1    
     4    1   69 1    
     5    2    3 2    
     6    2    4 am   BACKBONE|DICT|INTERRES
     7    4    5 1    
     8    4   70 1    
     9    5    6 1    
    10    5   65 1    
    11    5   71 1    
    12    6    7 1    
    13    6   72 1    
    14    6   73 1    
    15    7    8 1    
    16    8    9 1    
    17    8   74 1    
    18    8   75 1    
    19    9   10 ar   
    20    9   14 ar   
    21   10   11 ar   
    22   10   76 1    
    23   11   12 ar   
    24   11   48 1    
    25   12   13 ar   
    26   12   77 1    
    27   13   14 ar   
    28   13   15 1    
    29   14   78 1    
    30   15   16 1    
    31   15   79 1    
    32   15   80 1    
    33   16   17 1    
    34   17   18 1    
    35   17   81 1    
    36   17   82 1    
    37   18   19 1    
    38   18   22 1    
    39   18   83 1    
    40   19   20 am   BACKBONE|DICT|INTERRES
    41   19   21 2    
    42   20   84 1    
    43   20   85 1    
    44   22   23 am   BACKBONE|DICT|INTERRES
    45   22   86 1    
    46   23   24 2    
    47   23   25 1    
    48   25   26 1    
    49   25   27 1    
    50   25   87 1    
    51   26   88 1    
    52   26   89 1    
    53   26   90 1    
    54   27   28 am   BACKBONE|DICT|INTERRES
    55   27   91 1    
    56   28   29 2    
    57   28   30 1    
    58   30   31 1    
    59   30   32 1    
    60   30   92 1    
    61   31   93 1    
    62   31   94 1    
    63   31   95 1    
    64   32   33 am   BACKBONE|DICT|INTERRES
    65   32   96 1    
    66   33   34 2    
    67   33   35 1    
    68   35   36 1    
    69   35   37 1    
    70   35   97 1    
    71   36   98 1    
    72   36   99 1    
    73   36  100 1    
    74   37   38 am   BACKBONE|DICT|INTERRES
    75   37  101 1    
    76   38   39 2    
    77   38   40 1    
    78   40   41 1    
    79   40   42 1    
    80   40  102 1    
    81   41  103 1    
    82   41  104 1    
    83   41  105 1    
    84   42   43 am   BACKBONE|DICT|INTERRES
    85   42  106 1    
    86   43   44 2    
    87   43   45 1    
    88   45   46 1    
    89   45   49 1    
    90   45  107 1    
    91   46   47 1    
    92   46  108 1    
    93   46  109 1    
    94   47   48 1    
    95   48  110 1    
    96   48  111 1    
    97   49   50 am   BACKBONE|DICT|INTERRES
    98   49  112 1    
    99   50   51 2    
   100   50   52 1    
   101   52   53 1    
   102   52   54 1    
   103   52  113 1    
   104   53  114 1    
   105   53  115 1    
   106   53  116 1    
   107   54   55 am   BACKBONE|DICT|INTERRES
   108   54  117 1    
   109   55   56 2    
   110   55   57 1    
   111   57   58 1    
   112   57   59 1    
   113   57  118 1    
   114   58  119 1    
   115   58  120 1    
   116   58  121 1    
   117   59   60 am   BACKBONE|DICT|INTERRES
   118   59  122 1    
   119   60   61 2    
   120   60   62 1    
   121   62   63 1    
   122   62   64 1    
   123   62  123 1    
   124   63  124 1    
   125   63  125 1    
   126   63  126 1    
   127   64   65 am   BACKBONE|DICT|INTERRES
   128   64  127 1    
   129   65   66 2    
@<TRIPOS>SUBSTRUCTURE
     1 UNK         1 GROUP             0       ****    0 ROOT    
