@<TRIPOS>MOLECULE
3R135
127   129    1
SMALL
USER_CHARGES


@<TRIPOS>ATOM
      1 CA        -81.3088   24.5899  -70.1292 C.3       0 UNK        -0.1998 
      2 C         -82.0425   25.4552  -71.1420 C.2       0 UNK         0.4909 
      3 O         -83.2224   25.2234  -71.4060 O.2       0 UNK        -0.5240 
      4 N         -81.3506   26.4485  -71.7150 N.am      1 UNK        -0.4739 
      5 CA        -81.9058   27.4163  -72.6768 C.3       1 UNK         0.0864 
      6 C6        -81.2353   28.8088  -72.5502 C.3       11 UNK        -0.0881 
      7 S7        -81.4475   29.4880  -70.8627 S.3       11 UNK        -0.2682 
      8 C8        -80.0502   30.6524  -70.6925 C.3       11 UNK         0.0289 
      9 C9        -78.6819   30.0354  -70.9668 C.ar      11 UNK        -0.0687 
     10 C10       -78.3519   28.7558  -70.5035 C.ar      11 UNK        -0.0823 
     11 C11       -77.1294   28.1714  -70.8465 C.ar      11 UNK        -0.0830 
     12 C12       -76.2077   28.8974  -71.6055 C.ar      11 UNK        -0.1021 
     13 C13       -76.5076   30.1909  -72.0370 C.ar      11 UNK        -0.0753 
     14 C14       -77.7458   30.7532  -71.7177 C.ar      11 UNK        -0.0933 
     15 C15       -75.5060   30.9685  -72.8726 C.3       11 UNK         0.0166 
     16 S16       -75.8417   30.7538  -74.6449 S.3       11 UNK        -0.2615 
     17 C17       -74.4406   31.6624  -75.3802 C.3       11 UNK        -0.0865 
     18 CA        -73.4372   30.7348  -76.1298 C.3       10 UNK         0.0862 
     19 C         -72.3726   31.5330  -76.9443 C.2       10 UNK         0.5551 
     20 N         -71.1681   31.0111  -77.1426 N.am      10 UNK        -0.7319 
     21 O         -72.6460   32.6284  -77.4297 O.2       10 UNK        -0.5018 
     22 N         -72.8775   29.6536  -75.2893 N.am      10 UNK        -0.4509 
     23 C         -72.1229   29.8386  -74.1975 C.2       10 UNK         0.4899 
     24 O         -71.8345   30.9531  -73.7595 O.2       10 UNK        -0.4839 
     25 CA        -71.5676   28.6099  -73.4584 C.3       9 UNK         0.0222 
     26 CB        -71.9304   28.6419  -71.9610 C.3       9 UNK        -0.1966 
     27 N         -71.9589   27.3091  -74.0188 N.am      9 UNK        -0.4218 
     28 C         -71.1284   26.2547  -74.0542 C.2       9 UNK         0.5020 
     29 O         -69.9270   26.3179  -73.7857 O.2       9 UNK        -0.5274 
     30 CA        -71.7281   24.8807  -74.3935 C.3       8 UNK         0.0270 
     31 CB        -72.5297   24.3321  -73.2010 C.3       8 UNK        -0.1976 
     32 N         -72.5544   24.8793  -75.5994 N.am      8 UNK        -0.4313 
     33 C         -72.0792   25.0157  -76.8453 C.2       8 UNK         0.5041 
     34 O         -70.8849   25.1536  -77.1140 O.2       8 UNK        -0.5577 
     35 CA        -73.1067   24.9918  -77.9913 C.3       7 UNK         0.0284 
     36 CB        -73.4272   23.5463  -78.4041 C.3       7 UNK        -0.1958 
     37 N         -74.3474   25.6964  -77.6618 N.am      7 UNK        -0.4454 
     38 C         -74.4244   27.0118  -77.4219 C.2       7 UNK         0.5089 
     39 O         -73.4665   27.7776  -77.5161 O.2       7 UNK        -0.5125 
     40 CA        -75.7789   27.5569  -76.9370 C.3       6 UNK         0.0408 
     41 CB        -76.7428   27.7793  -78.1112 C.3       6 UNK        -0.1791 
     42 N         -76.4014   26.7050  -75.9209 N.am      6 UNK        -0.4762 
     43 C         -75.8590   26.4362  -74.7228 C.2       6 UNK         0.5007 
     44 O         -74.7907   26.9090  -74.3276 O.2       6 UNK        -0.5032 
     45 CA        -76.6103   25.4194  -73.8418 C.3       5 UNK         0.0783 
     46 C46       -77.7871   26.0881  -73.0837 C.3       11 UNK        -0.0857 
     47 S47       -77.9062   25.5415  -71.3476 S.3       11 UNK        -0.2512 
     48 C48       -76.8306   26.7282  -70.4677 C.3       11 UNK         0.0225 
     49 N         -77.0571   24.2721  -74.6379 N.am      5 UNK        -0.4615 
     50 C         -76.2449   23.3719  -75.2075 C.2       4 UNK         0.5053 
     51 O         -75.0232   23.3726  -75.0698 O.2       4 UNK        -0.5105 
     52 CA        -76.9018   22.3238  -76.1231 C.3       4 UNK         0.0263 
     53 CB        -77.4356   21.1436  -75.2962 C.3       4 UNK        -0.1981 
     54 N         -77.9847   22.8834  -76.9371 N.am      4 UNK        -0.4224 
     55 C         -77.8164   23.8171  -77.8857 C.2       3 UNK         0.4895 
     56 O         -76.7158   24.2389  -78.2360 O.2       3 UNK        -0.5091 
     57 CA        -79.0855   24.4206  -78.5172 C.3       3 UNK         0.0250 
     58 CB        -79.4617   23.6583  -79.7972 C.3       3 UNK        -0.1996 
     59 N         -80.2397   24.4583  -77.6110 N.am      3 UNK        -0.4254 
     60 C         -80.2739   25.1029  -76.4354 C.2       2 UNK         0.5004 
     61 O         -79.3343   25.7758  -76.0043 O.2       2 UNK        -0.5226 
     62 CA        -81.5398   24.8878  -75.5881 C.3       2 UNK         0.0269 
     63 CB        -81.7269   23.3953  -75.2526 C.3       2 UNK        -0.1926 
     64 N         -81.5006   25.6230  -74.3234 N.am      2 UNK        -0.4687 
     65 C         -81.9051   26.8855  -74.1320 C.2       1 UNK         0.5165 
     66 O         -82.3087   27.6101  -75.0434 O.2       1 UNK        -0.5079 
     67 H67       -80.9755   23.6634  -70.5959 H         1 UNK         0.0900 
     68 H68       -81.9683   24.3370  -69.2995 H         1 UNK         0.0900 
     69 H69       -80.4387   25.1014  -69.7185 H         1 UNK         0.0900 
     70 H70       -80.3794   26.5840  -71.4697 H         1 UNK         0.2959 
     71 H71       -82.9620   27.5585  -72.4356 H         1 UNK         0.1079 
     72 H72       -80.1767   28.7406  -72.8049 H         1 UNK         0.0837 
     73 H73       -81.6747   29.5193  -73.2528 H         1 UNK         0.0837 
     74 H74       -80.2303   31.4941  -71.3632 H         1 UNK         0.0685 
     75 H75       -80.0536   31.0578  -69.6801 H         1 UNK         0.0685 
     76 H76       -79.0682   28.1905  -69.9234 H         1 UNK         0.1434 
     77 H77       -75.2708   28.4429  -71.8937 H         1 UNK         0.1329 
     78 H78       -77.9865   31.7448  -72.0762 H         1 UNK         0.1335 
     79 H79       -75.5493   32.0289  -72.6193 H         1 UNK         0.0680 
     80 H80       -74.4924   30.6362  -72.6468 H         1 UNK         0.0680 
     81 H81       -73.9303   32.2528  -74.6181 H         1 UNK         0.1032 
     82 H82       -74.8693   32.3894  -76.0723 H         1 UNK         0.1032 
     83 H83       -74.0159   30.2296  -76.9013 H         1 UNK         0.0461 
     84 H84       -70.4863   31.5252  -77.6776 H         1 UNK         0.3453 
     85 H85       -70.9429   30.1015  -76.7731 H         1 UNK         0.3453 
     86 H86       -73.0316   28.7185  -75.6445 H         1 UNK         0.2984 
     87 H87       -70.4844   28.7239  -73.5346 H         1 UNK         0.0554 
     88 H88       -71.4164   27.8529  -71.4119 H         1 UNK         0.0847 
     89 H89       -73.0003   28.5124  -71.8063 H         1 UNK         0.0847 
     90 H90       -71.6452   29.5884  -71.4999 H         1 UNK         0.0847 
     91 H91       -72.9494   27.1674  -74.2154 H         1 UNK         0.3141 
     92 H92       -70.8948   24.1965  -74.5684 H         1 UNK         0.0743 
     93 H93       -73.4095   24.9390  -72.9883 H         1 UNK         0.0784 
     94 H94       -72.8631   23.3106  -73.3844 H         1 UNK         0.0784 
     95 H95       -71.9204   24.3144  -72.2963 H         1 UNK         0.0784 
     96 H96       -73.5436   24.6876  -75.4743 H         1 UNK         0.3213 
     97 H97       -72.6565   25.4981  -78.8480 H         1 UNK         0.0855 
     98 H98       -73.8988   22.9898  -77.5937 H         1 UNK         0.0814 
     99 H99       -72.5196   23.0100  -78.6840 H         1 UNK         0.0814 
    100 H100      -74.0986   23.5187  -79.2625 H         1 UNK         0.0814 
    101 H101      -75.2023   25.1439  -77.6402 H         1 UNK         0.3105 
    102 H102      -75.5975   28.5245  -76.4708 H         1 UNK         0.0547 
    103 H103      -76.3332   28.5071  -78.8127 H         1 UNK         0.0837 
    104 H104      -76.9236   26.8616  -78.6692 H         1 UNK         0.0837 
    105 H105      -77.7047   28.1629  -77.7703 H         1 UNK         0.0837 
    106 H106      -77.3031   26.2953  -76.1431 H         1 UNK         0.3020 
    107 H107      -75.8801   25.0524  -73.1171 H         1 UNK         0.1245 
    108 H108      -78.7387   25.8445  -73.5525 H         1 UNK         0.0781 
    109 H109      -77.7487   27.1764  -73.1299 H         1 UNK         0.0781 
    110 H110      -75.7889   26.4812  -70.6791 H         1 UNK         0.0836 
    111 H111      -76.9628   26.6002  -69.3925 H         1 UNK         0.0836 
    112 H112      -78.0411   24.2478  -74.8625 H         1 UNK         0.3022 
    113 H113      -76.1326   21.9471  -76.8006 H         1 UNK         0.0747 
    114 H114      -77.8318   20.3565  -75.9381 H         1 UNK         0.0793 
    115 H115      -76.6408   20.6992  -74.6952 H         1 UNK         0.0793 
    116 H116      -78.2278   21.4511  -74.6124 H         1 UNK         0.0793 
    117 H117      -78.9228   22.5763  -76.7279 H         1 UNK         0.3047 
    118 H118      -78.8544   25.4516  -78.7907 H         1 UNK         0.0822 
    119 H119      -80.2991   24.1316  -80.3103 H         1 UNK         0.0807 
    120 H120      -79.7361   22.6237  -79.5873 H         1 UNK         0.0807 
    121 H121      -78.6258   23.6377  -80.4982 H         1 UNK         0.0807 
    122 H122      -81.0515   23.9304  -77.8985 H         1 UNK         0.2946 
    123 H123      -82.3964   25.2302  -76.1737 H         1 UNK         0.1144 
    124 H124      -81.8677   22.7926  -76.1504 H         1 UNK         0.0793 
    125 H125      -82.6089   23.2398  -74.6304 H         1 UNK         0.0793 
    126 H126      -80.8680   22.9895  -74.7160 H         1 UNK         0.0793 
    127 H127      -81.1689   25.1173  -73.5160 H         1 UNK         0.2896 
@<TRIPOS>BOND
     1    1    2 1    
     2    1   67 1    
     3    1   68 1    
     4    1   69 1    
     5    2    3 2    
     6    2    4 am   BACKBONE|DICT|INTERRES
     7    4    5 1    
     8    4   70 1    
     9    5    6 1    
    10    5   65 1    
    11    5   71 1    
    12    6    7 1    
    13    6   72 1    
    14    6   73 1    
    15    7    8 1    
    16    8    9 1    
    17    8   74 1    
    18    8   75 1    
    19    9   10 ar   
    20    9   14 ar   
    21   10   11 ar   
    22   10   76 1    
    23   11   12 ar   
    24   11   48 1    
    25   12   13 ar   
    26   12   77 1    
    27   13   14 ar   
    28   13   15 1    
    29   14   78 1    
    30   15   16 1    
    31   15   79 1    
    32   15   80 1    
    33   16   17 1    
    34   17   18 1    
    35   17   81 1    
    36   17   82 1    
    37   18   19 1    
    38   18   22 1    
    39   18   83 1    
    40   19   20 am   BACKBONE|DICT|INTERRES
    41   19   21 2    
    42   20   84 1    
    43   20   85 1    
    44   22   23 am   BACKBONE|DICT|INTERRES
    45   22   86 1    
    46   23   24 2    
    47   23   25 1    
    48   25   26 1    
    49   25   27 1    
    50   25   87 1    
    51   26   88 1    
    52   26   89 1    
    53   26   90 1    
    54   27   28 am   BACKBONE|DICT|INTERRES
    55   27   91 1    
    56   28   29 2    
    57   28   30 1    
    58   30   31 1    
    59   30   32 1    
    60   30   92 1    
    61   31   93 1    
    62   31   94 1    
    63   31   95 1    
    64   32   33 am   BACKBONE|DICT|INTERRES
    65   32   96 1    
    66   33   34 2    
    67   33   35 1    
    68   35   36 1    
    69   35   37 1    
    70   35   97 1    
    71   36   98 1    
    72   36   99 1    
    73   36  100 1    
    74   37   38 am   BACKBONE|DICT|INTERRES
    75   37  101 1    
    76   38   39 2    
    77   38   40 1    
    78   40   41 1    
    79   40   42 1    
    80   40  102 1    
    81   41  103 1    
    82   41  104 1    
    83   41  105 1    
    84   42   43 am   BACKBONE|DICT|INTERRES
    85   42  106 1    
    86   43   44 2    
    87   43   45 1    
    88   45   46 1    
    89   45   49 1    
    90   45  107 1    
    91   46   47 1    
    92   46  108 1    
    93   46  109 1    
    94   47   48 1    
    95   48  110 1    
    96   48  111 1    
    97   49   50 am   BACKBONE|DICT|INTERRES
    98   49  112 1    
    99   50   51 2    
   100   50   52 1    
   101   52   53 1    
   102   52   54 1    
   103   52  113 1    
   104   53  114 1    
   105   53  115 1    
   106   53  116 1    
   107   54   55 am   BACKBONE|DICT|INTERRES
   108   54  117 1    
   109   55   56 2    
   110   55   57 1    
   111   57   58 1    
   112   57   59 1    
   113   57  118 1    
   114   58  119 1    
   115   58  120 1    
   116   58  121 1    
   117   59   60 am   BACKBONE|DICT|INTERRES
   118   59  122 1    
   119   60   61 2    
   120   60   62 1    
   121   62   63 1    
   122   62   64 1    
   123   62  123 1    
   124   63  124 1    
   125   63  125 1    
   126   63  126 1    
   127   64   65 am   BACKBONE|DICT|INTERRES
   128   64  127 1    
   129   65   66 2    
@<TRIPOS>SUBSTRUCTURE
     1 UNK         1 GROUP             0       ****    0 ROOT    
