@<TRIPOS>MOLECULE
3R135
127   129    1
SMALL
USER_CHARGES


@<TRIPOS>ATOM
      1 CA        -84.5958   27.6398  -71.3123 C.3       0 UNK        -0.1998 
      2 C         -84.0862   27.6870  -72.7450 C.2       0 UNK         0.4909 
      3 O         -84.8113   27.3080  -73.6650 O.2       0 UNK        -0.5240 
      4 N         -82.8460   28.1559  -72.9374 N.am      1 UNK        -0.4739 
      5 CA        -82.1738   28.2666  -74.2390 C.3       1 UNK         0.0864 
      6 C6        -80.8628   29.0900  -74.1599 C.3       11 UNK        -0.0881 
      7 S7        -81.0943   30.7894  -73.5283 S.3       11 UNK        -0.2682 
      8 C8        -80.8858   30.6161  -71.7216 C.3       11 UNK         0.0289 
      9 C9        -79.5333   30.0379  -71.3293 C.ar      11 UNK        -0.0687 
     10 C10       -79.4139   28.6904  -70.9731 C.ar      11 UNK        -0.0823 
     11 C11       -78.1729   28.1539  -70.6173 C.ar      11 UNK        -0.0830 
     12 C12       -77.0548   28.9937  -70.5674 C.ar      11 UNK        -0.1021 
     13 C13       -77.1561   30.3350  -70.9483 C.ar      11 UNK        -0.0753 
     14 C14       -78.3991   30.8530  -71.3221 C.ar      11 UNK        -0.0933 
     15 C15       -75.9201   31.2188  -70.9945 C.3       11 UNK         0.0166 
     16 S16       -74.9709   30.9259  -72.5221 S.3       11 UNK        -0.2615 
     17 C17       -73.9407   29.4936  -72.0493 C.3       11 UNK        -0.0865 
     18 CA        -72.5230   29.5871  -72.6722 C.3       10 UNK         0.0862 
     19 C         -71.4881   28.6851  -71.9325 C.2       10 UNK         0.5551 
     20 N         -70.6184   27.9500  -72.6143 N.am      10 UNK        -0.7319 
     21 O         -71.4576   28.6635  -70.7045 O.2       10 UNK        -0.5018 
     22 N         -72.5747   29.3694  -74.1267 N.am      10 UNK        -0.4509 
     23 C         -71.7746   29.9536  -75.0251 C.2       10 UNK         0.4899 
     24 O         -70.9558   30.8329  -74.7511 O.2       10 UNK        -0.4839 
     25 CA        -71.8927   29.4188  -76.4666 C.3       9 UNK         0.0222 
     26 CB        -70.8292   30.0029  -77.4199 C.3       9 UNK        -0.1966 
     27 N         -71.8804   27.9505  -76.5129 N.am      9 UNK        -0.4218 
     28 C         -70.9344   27.1296  -76.0276 C.2       9 UNK         0.5020 
     29 O         -69.8899   27.5243  -75.5078 O.2       9 UNK        -0.5274 
     30 CA        -71.2013   25.6134  -76.0680 C.3       8 UNK         0.0270 
     31 CB        -71.4170   25.0772  -74.6427 C.3       8 UNK        -0.1976 
     32 N         -72.3468   25.2357  -76.8988 N.am      8 UNK        -0.4313 
     33 C         -72.3430   25.2345  -78.2385 C.2       8 UNK         0.5041 
     34 O         -71.3522   25.4977  -78.9211 O.2       8 UNK        -0.5577 
     35 CA        -73.6748   24.9157  -78.9360 C.3       7 UNK         0.0284 
     36 CB        -73.8728   23.3954  -79.0454 C.3       7 UNK        -0.1958 
     37 N         -74.8341   25.5233  -78.2736 N.am      7 UNK        -0.4454 
     38 C         -75.0470   26.8434  -78.1628 C.2       7 UNK         0.5089 
     39 O         -74.2839   27.6996  -78.6093 O.2       7 UNK        -0.5125 
     40 CA        -76.2970   27.2884  -77.3838 C.3       6 UNK         0.0408 
     41 CB        -77.5724   27.0868  -78.2166 C.3       6 UNK        -0.1791 
     42 N         -76.4300   26.6024  -76.0986 N.am      6 UNK        -0.4762 
     43 C         -75.5597   26.7124  -75.0840 C.2       6 UNK         0.5007 
     44 O         -74.5700   27.4469  -75.0972 O.2       6 UNK        -0.5032 
     45 CA        -75.8157   25.8233  -73.8545 C.3       5 UNK         0.0783 
     46 C46       -76.8316   26.4893  -72.8964 C.3       11 UNK        -0.0857 
     47 S47       -76.6771   25.8358  -71.2005 S.3       11 UNK        -0.2512 
     48 C48       -78.0504   26.6616  -70.3174 C.3       11 UNK         0.0225 
     49 N         -76.2217   24.4683  -74.2413 N.am      5 UNK        -0.4615 
     50 C         -75.4465   23.6012  -74.9071 C.2       4 UNK         0.5053 
     51 O         -74.2892   23.8378  -75.2499 O.2       4 UNK        -0.5105 
     52 CA        -76.0891   22.2613  -75.2994 C.3       4 UNK         0.0263 
     53 CB        -76.1629   21.3159  -74.0898 C.3       4 UNK        -0.1981 
     54 N         -77.4232   22.4292  -75.8800 N.am      4 UNK        -0.4224 
     55 C         -77.6729   23.0702  -77.0313 C.2       3 UNK         0.4895 
     56 O         -76.8013   23.5498  -77.7534 O.2       3 UNK        -0.5091 
     57 CA        -79.1468   23.2464  -77.4280 C.3       3 UNK         0.0250 
     58 CB        -79.6394   22.0286  -78.2256 C.3       3 UNK        -0.1996 
     59 N         -80.0424   23.4877  -76.2925 N.am      3 UNK        -0.4254 
     60 C         -79.9417   24.5170  -75.4399 C.2       2 UNK         0.5004 
     61 O         -79.0322   25.3509  -75.4646 O.2       2 UNK        -0.5226 
     62 CA        -81.0146   24.5892  -74.3407 C.3       2 UNK         0.0269 
     63 CB        -80.5123   23.8829  -73.0702 C.3       2 UNK        -0.1926 
     64 N         -81.3876   25.9627  -73.9982 N.am      2 UNK        -0.4687 
     65 C         -81.8851   26.8785  -74.8443 C.2       1 UNK         0.5165 
     66 O         -82.1354   26.6640  -76.0316 O.2       1 UNK        -0.5079 
     67 H67       -83.8594   28.0172  -70.6030 H         1 UNK         0.0900 
     68 H68       -84.8392   26.6146  -71.0349 H         1 UNK         0.0900 
     69 H69       -85.4985   28.2424  -71.2156 H         1 UNK         0.0900 
     70 H70       -82.3157   28.4809  -72.1447 H         1 UNK         0.2959 
     71 H71       -82.8571   28.7803  -74.9194 H         1 UNK         0.1079 
     72 H72       -80.1035   28.5723  -73.5743 H         1 UNK         0.0837 
     73 H73       -80.4322   29.1850  -75.1589 H         1 UNK         0.0837 
     74 H74       -80.9956   31.6029  -71.2691 H         1 UNK         0.0685 
     75 H75       -81.6956   30.0155  -71.3084 H         1 UNK         0.0685 
     76 H76       -80.2859   28.0522  -70.9914 H         1 UNK         0.1434 
     77 H77       -76.0943   28.5870  -70.2842 H         1 UNK         0.1329 
     78 H78       -78.4846   31.8892  -71.6199 H         1 UNK         0.1335 
     79 H79       -75.2990   31.0551  -70.1129 H         1 UNK         0.0680 
     80 H80       -76.2107   32.2701  -70.9651 H         1 UNK         0.0680 
     81 H81       -74.4385   28.5716  -72.3528 H         1 UNK         0.1032 
     82 H82       -73.8810   29.4594  -70.9606 H         1 UNK         0.1032 
     83 H83       -72.1639   30.6026  -72.4939 H         1 UNK         0.0461 
     84 H84       -69.9560   27.3872  -72.1054 H         1 UNK         0.3453 
     85 H85       -70.5673   27.9916  -73.6246 H         1 UNK         0.3453 
     86 H86       -73.2256   28.6580  -74.4501 H         1 UNK         0.2984 
     87 H87       -72.8732   29.7281  -76.8319 H         1 UNK         0.0554 
     88 H88       -70.9582   29.6257  -78.4344 H         1 UNK         0.0847 
     89 H89       -69.8167   29.7581  -77.0973 H         1 UNK         0.0847 
     90 H90       -70.9017   31.0901  -77.4667 H         1 UNK         0.0847 
     91 H91       -72.7173   27.5271  -76.8945 H         1 UNK         0.3141 
     92 H92       -70.3082   25.1376  -76.4784 H         1 UNK         0.0743 
     93 H93       -72.2859   25.5353  -74.1682 H         1 UNK         0.0784 
     94 H94       -71.5647   23.9971  -74.6425 H         1 UNK         0.0784 
     95 H95       -70.5528   25.2830  -74.0099 H         1 UNK         0.0784 
     96 H96       -73.1842   24.9308  -76.4069 H         1 UNK         0.3213 
     97 H97       -73.6218   25.3249  -79.9471 H         1 UNK         0.0855 
     98 H98       -73.9814   22.9316  -78.0640 H         1 UNK         0.0814 
     99 H99       -73.0222   22.9236  -79.5391 H         1 UNK         0.0814 
    100 H100      -74.7609   23.1531  -79.6292 H         1 UNK         0.0814 
    101 H101      -75.5356   24.8797  -77.9102 H         1 UNK         0.3105 
    102 H102      -76.1975   28.3559  -77.1760 H         1 UNK         0.0547 
    103 H103      -77.5177   27.6441  -79.1526 H         1 UNK         0.0837 
    104 H104      -77.7296   26.0390  -78.4710 H         1 UNK         0.0837 
    105 H105      -78.4556   27.4357  -77.6810 H         1 UNK         0.0837 
    106 H106      -77.2461   26.0082  -75.9733 H         1 UNK         0.3020 
    107 H107      -74.8557   25.7416  -73.3389 H         1 UNK         0.1245 
    108 H108      -76.6630   27.5665  -72.8539 H         1 UNK         0.0781 
    109 H109      -77.8563   26.3586  -73.2486 H         1 UNK         0.0781 
    110 H110      -78.9752   26.1424  -70.5736 H         1 UNK         0.0836 
    111 H111      -77.9109   26.5268  -69.2441 H         1 UNK         0.0836 
    112 H112      -77.1773   24.2147  -74.0413 H         1 UNK         0.3022 
    113 H113      -75.4516   21.7982  -76.0558 H         1 UNK         0.0747 
    114 H114      -76.5359   20.3327  -74.3775 H         1 UNK         0.0793 
    115 H115      -75.1751   21.1694  -73.6502 H         1 UNK         0.0793 
    116 H116      -76.8134   21.7061  -73.3060 H         1 UNK         0.0793 
    117 H117      -78.2041   22.0637  -75.3555 H         1 UNK         0.3047 
    118 H118      -79.2054   24.1224  -78.0770 H         1 UNK         0.0822 
    119 H119      -80.6493   22.1842  -78.6055 H         1 UNK         0.0807 
    120 H120      -79.6432   21.1212  -77.6204 H         1 UNK         0.0807 
    121 H121      -78.9973   21.8422  -79.0880 H         1 UNK         0.0807 
    122 H122      -80.8119   22.8421  -76.1861 H         1 UNK         0.2946 
    123 H123      -81.9161   24.0855  -74.6963 H         1 UNK         0.1144 
    124 H124      -80.2521   22.8433  -73.2741 H         1 UNK         0.0793 
    125 H125      -81.2757   23.8747  -72.2918 H         1 UNK         0.0793 
    126 H126      -79.6235   24.3675  -72.6631 H         1 UNK         0.0793 
    127 H127      -81.2311   26.2425  -73.0424 H         1 UNK         0.2896 
@<TRIPOS>BOND
     1    1    2 1    
     2    1   67 1    
     3    1   68 1    
     4    1   69 1    
     5    2    3 2    
     6    2    4 am   BACKBONE|DICT|INTERRES
     7    4    5 1    
     8    4   70 1    
     9    5    6 1    
    10    5   65 1    
    11    5   71 1    
    12    6    7 1    
    13    6   72 1    
    14    6   73 1    
    15    7    8 1    
    16    8    9 1    
    17    8   74 1    
    18    8   75 1    
    19    9   10 ar   
    20    9   14 ar   
    21   10   11 ar   
    22   10   76 1    
    23   11   12 ar   
    24   11   48 1    
    25   12   13 ar   
    26   12   77 1    
    27   13   14 ar   
    28   13   15 1    
    29   14   78 1    
    30   15   16 1    
    31   15   79 1    
    32   15   80 1    
    33   16   17 1    
    34   17   18 1    
    35   17   81 1    
    36   17   82 1    
    37   18   19 1    
    38   18   22 1    
    39   18   83 1    
    40   19   20 am   BACKBONE|DICT|INTERRES
    41   19   21 2    
    42   20   84 1    
    43   20   85 1    
    44   22   23 am   BACKBONE|DICT|INTERRES
    45   22   86 1    
    46   23   24 2    
    47   23   25 1    
    48   25   26 1    
    49   25   27 1    
    50   25   87 1    
    51   26   88 1    
    52   26   89 1    
    53   26   90 1    
    54   27   28 am   BACKBONE|DICT|INTERRES
    55   27   91 1    
    56   28   29 2    
    57   28   30 1    
    58   30   31 1    
    59   30   32 1    
    60   30   92 1    
    61   31   93 1    
    62   31   94 1    
    63   31   95 1    
    64   32   33 am   BACKBONE|DICT|INTERRES
    65   32   96 1    
    66   33   34 2    
    67   33   35 1    
    68   35   36 1    
    69   35   37 1    
    70   35   97 1    
    71   36   98 1    
    72   36   99 1    
    73   36  100 1    
    74   37   38 am   BACKBONE|DICT|INTERRES
    75   37  101 1    
    76   38   39 2    
    77   38   40 1    
    78   40   41 1    
    79   40   42 1    
    80   40  102 1    
    81   41  103 1    
    82   41  104 1    
    83   41  105 1    
    84   42   43 am   BACKBONE|DICT|INTERRES
    85   42  106 1    
    86   43   44 2    
    87   43   45 1    
    88   45   46 1    
    89   45   49 1    
    90   45  107 1    
    91   46   47 1    
    92   46  108 1    
    93   46  109 1    
    94   47   48 1    
    95   48  110 1    
    96   48  111 1    
    97   49   50 am   BACKBONE|DICT|INTERRES
    98   49  112 1    
    99   50   51 2    
   100   50   52 1    
   101   52   53 1    
   102   52   54 1    
   103   52  113 1    
   104   53  114 1    
   105   53  115 1    
   106   53  116 1    
   107   54   55 am   BACKBONE|DICT|INTERRES
   108   54  117 1    
   109   55   56 2    
   110   55   57 1    
   111   57   58 1    
   112   57   59 1    
   113   57  118 1    
   114   58  119 1    
   115   58  120 1    
   116   58  121 1    
   117   59   60 am   BACKBONE|DICT|INTERRES
   118   59  122 1    
   119   60   61 2    
   120   60   62 1    
   121   62   63 1    
   122   62   64 1    
   123   62  123 1    
   124   63  124 1    
   125   63  125 1    
   126   63  126 1    
   127   64   65 am   BACKBONE|DICT|INTERRES
   128   64  127 1    
   129   65   66 2    
@<TRIPOS>SUBSTRUCTURE
     1 UNK         1 GROUP             0       ****    0 ROOT    
