@<TRIPOS>MOLECULE
3R135
127   129    1
SMALL
USER_CHARGES


@<TRIPOS>ATOM
      1 CA        -81.6872   21.6307  -71.5415 C.3       0 UNK        -0.1998 
      2 C         -82.1555   23.0779  -71.5650 C.2       0 UNK         0.4909 
      3 O         -83.3457   23.3401  -71.3907 O.2       0 UNK        -0.5240 
      4 N         -81.2259   24.0185  -71.7790 N.am      1 UNK        -0.4739 
      5 CA        -81.4820   25.4659  -71.8233 C.3       1 UNK         0.0864 
      6 C6        -80.1678   26.2841  -71.8333 C.3       11 UNK        -0.0881 
      7 S7        -79.0091   25.8990  -70.4761 S.3       11 UNK        -0.2682 
      8 C8        -77.3933   26.1370  -71.2948 C.3       11 UNK         0.0289 
      9 C9        -77.0283   27.6088  -71.4682 C.ar      11 UNK        -0.0687 
     10 C10       -77.7032   28.3995  -72.4019 C.ar      11 UNK        -0.0823 
     11 C11       -77.3521   29.7345  -72.5972 C.ar      11 UNK        -0.0830 
     12 C12       -76.3300   30.2929  -71.8303 C.ar      11 UNK        -0.1021 
     13 C13       -75.6131   29.5127  -70.9146 C.ar      11 UNK        -0.0753 
     14 C14       -75.9809   28.1738  -70.7310 C.ar      11 UNK        -0.0933 
     15 C15       -74.4544   30.0859  -70.0970 C.3       11 UNK         0.0166 
     16 S16       -73.6217   31.5389  -70.8354 S.3       11 UNK        -0.2615 
     17 C17       -72.6522   30.8134  -72.2068 C.3       11 UNK        -0.0865 
     18 CA        -73.2727   31.0004  -73.6271 C.3       10 UNK         0.0862 
     19 C         -73.2074   32.4563  -74.1899 C.2       10 UNK         0.5551 
     20 N         -73.2596   32.6419  -75.5039 N.am      10 UNK        -0.7319 
     21 O         -73.1231   33.4305  -73.4467 O.2       10 UNK        -0.5018 
     22 N         -72.7794   29.9769  -74.5641 N.am      10 UNK        -0.4509 
     23 C         -71.5079   29.8399  -74.9685 C.2       10 UNK         0.4899 
     24 O         -70.5924   30.5992  -74.6458 O.2       10 UNK        -0.4839 
     25 CA        -71.2209   28.6149  -75.8554 C.3       9 UNK         0.0222 
     26 CB        -69.7222   28.4160  -76.1648 C.3       9 UNK        -0.1966 
     27 N         -71.8090   27.3985  -75.2862 N.am      9 UNK        -0.4218 
     28 C         -71.5529   26.8409  -74.0915 C.2       9 UNK         0.5020 
     29 O         -70.6874   27.2360  -73.3094 O.2       9 UNK        -0.5274 
     30 CA        -72.4346   25.6481  -73.6820 C.3       8 UNK         0.0270 
     31 CB        -73.5589   26.1240  -72.7444 C.3       8 UNK        -0.1976 
     32 N         -73.0290   24.9524  -74.8256 N.am      8 UNK        -0.4313 
     33 C         -72.3560   24.2035  -75.7100 C.2       8 UNK         0.5041 
     34 O         -71.1560   23.9424  -75.6186 O.2       8 UNK        -0.5577 
     35 CA        -73.1547   23.6873  -76.9177 C.3       7 UNK         0.0284 
     36 CB        -73.9855   22.4503  -76.5383 C.3       7 UNK        -0.1958 
     37 N         -74.0270   24.7211  -77.4838 N.am      7 UNK        -0.4454 
     38 C         -73.5954   25.7784  -78.1871 C.2       7 UNK         0.5089 
     39 O         -72.4137   25.9828  -78.4621 O.2       7 UNK        -0.5125 
     40 CA        -74.6580   26.7907  -78.6476 C.3       6 UNK         0.0408 
     41 CB        -75.2475   26.3748  -80.0041 C.3       6 UNK        -0.1791 
     42 N         -75.7378   26.9531  -77.6721 N.am      6 UNK        -0.4762 
     43 C         -75.6098   27.6209  -76.5145 C.2       6 UNK         0.5007 
     44 O         -74.5737   28.1901  -76.1654 O.2       6 UNK        -0.5032 
     45 CA        -76.8185   27.5991  -75.5540 C.3       5 UNK         0.0783 
     46 C46       -77.8063   28.7597  -75.8395 C.3       11 UNK        -0.0857 
     47 S47       -77.2089   30.3900  -75.2723 S.3       11 UNK        -0.2512 
     48 C48       -78.0478   30.5646  -73.6638 C.3       11 UNK         0.0225 
     49 N         -77.5176   26.3076  -75.5439 N.am      5 UNK        -0.4615 
     50 C         -76.9480   25.1247  -75.2695 C.2       4 UNK         0.5053 
     51 O         -75.7939   25.0120  -74.8647 O.2       4 UNK        -0.5105 
     52 CA        -77.7605   23.8418  -75.5305 C.3       4 UNK         0.0263 
     53 CB        -78.2517   23.2500  -74.1999 C.3       4 UNK        -0.1981 
     54 N         -78.9037   24.0081  -76.4316 N.am      4 UNK        -0.4224 
     55 C         -78.8861   24.5156  -77.6739 C.2       3 UNK         0.4895 
     56 O         -77.8552   24.8380  -78.2663 O.2       3 UNK        -0.5091 
     57 CA        -80.2537   24.7679  -78.3412 C.3       3 UNK         0.0250 
     58 CB        -80.5267   23.7052  -79.4175 C.3       3 UNK        -0.1996 
     59 N         -81.3907   24.8135  -77.4073 N.am      3 UNK        -0.4254 
     60 C         -81.5361   25.6741  -76.3867 C.2       2 UNK         0.5004 
     61 O         -80.7125   26.5526  -76.1195 O.2       2 UNK        -0.5226 
     62 CA        -82.7504   25.4828  -75.4613 C.3       2 UNK         0.0269 
     63 CB        -83.7394   24.3903  -75.9197 C.3       2 UNK        -0.1926 
     64 N         -82.2386   25.1360  -74.1363 N.am      2 UNK        -0.4687 
     65 C         -82.3307   25.9000  -73.0406 C.2       1 UNK         0.5165 
     66 O         -83.0057   26.9286  -72.9739 O.2       1 UNK        -0.5079 
     67 H67       -81.9041   21.1824  -70.5724 H         1 UNK         0.0900 
     68 H68       -82.2073   21.0558  -72.3071 H         1 UNK         0.0900 
     69 H69       -80.6159   21.5450  -71.7225 H         1 UNK         0.0900 
     70 H70       -80.2564   23.7471  -71.8541 H         1 UNK         0.2959 
     71 H71       -82.0461   25.7303  -70.9260 H         1 UNK         0.1079 
     72 H72       -79.6550   26.1232  -72.7832 H         1 UNK         0.0837 
     73 H73       -80.3931   27.3514  -71.7767 H         1 UNK         0.0837 
     74 H74       -76.6327   25.6312  -70.6983 H         1 UNK         0.0685 
     75 H75       -77.3876   25.6393  -72.2650 H         1 UNK         0.0685 
     76 H76       -78.4822   27.9745  -73.0135 H         1 UNK         0.1434 
     77 H77       -76.0773   31.3330  -71.9788 H         1 UNK         0.1329 
     78 H78       -75.4413   27.5656  -70.0178 H         1 UNK         0.1335 
     79 H79       -73.7076   29.3126  -69.9098 H         1 UNK         0.0680 
     80 H80       -74.8441   30.3785  -69.1214 H         1 UNK         0.0680 
     81 H81       -71.6473   31.2378  -72.1781 H         1 UNK         0.1032 
     82 H82       -72.5226   29.7499  -71.9990 H         1 UNK         0.1032 
     83 H83       -74.3367   30.7879  -73.5498 H         1 UNK         0.0461 
     84 H84       -73.2218   33.5784  -75.8738 H         1 UNK         0.3453 
     85 H85       -73.3389   31.8534  -76.1259 H         1 UNK         0.3453 
     86 H86       -73.4730   29.3349  -74.9366 H         1 UNK         0.2984 
     87 H87       -71.7343   28.7894  -76.8022 H         1 UNK         0.0554 
     88 H88       -69.3141   29.2827  -76.6860 H         1 UNK         0.0847 
     89 H89       -69.5632   27.5480  -76.8047 H         1 UNK         0.0847 
     90 H90       -69.1338   28.2766  -75.2575 H         1 UNK         0.0847 
     91 H91       -72.5812   27.0140  -75.8138 H         1 UNK         0.3141 
     92 H92       -71.8059   24.9388  -73.1397 H         1 UNK         0.0743 
     93 H93       -73.1511   26.6166  -71.8606 H         1 UNK         0.0784 
     94 H94       -74.2209   26.8379  -73.2371 H         1 UNK         0.0784 
     95 H95       -74.1689   25.2894  -72.3982 H         1 UNK         0.0784 
     96 H96       -74.0397   25.0463  -74.9356 H         1 UNK         0.3213 
     97 H97       -72.4395   23.3898  -77.6881 H         1 UNK         0.0855 
     98 H98       -74.6930   22.6629  -75.7367 H         1 UNK         0.0814 
     99 H99       -73.3388   21.6437  -76.1906 H         1 UNK         0.0814 
    100 H100      -74.5464   22.0693  -77.3919 H         1 UNK         0.0814 
    101 H101      -75.0150   24.6492  -77.2893 H         1 UNK         0.3105 
    102 H102      -74.1645   27.7565  -78.7771 H         1 UNK         0.0547 
    103 H103      -75.9648   27.1106  -80.3676 H         1 UNK         0.0837 
    104 H104      -74.4643   26.2864  -80.7583 H         1 UNK         0.0837 
    105 H105      -75.7553   25.4111  -79.9482 H         1 UNK         0.0837 
    106 H106      -76.6035   26.4588  -77.8651 H         1 UNK         0.3020 
    107 H107      -76.3942   27.7270  -74.5582 H         1 UNK         0.1245 
    108 H108      -78.7666   28.5653  -75.3596 H         1 UNK         0.0781 
    109 H109      -78.0321   28.8234  -76.9059 H         1 UNK         0.0781 
    110 H110      -79.0986   30.2836  -73.7503 H         1 UNK         0.0836 
    111 H111      -78.0406   31.6175  -73.3776 H         1 UNK         0.0836 
    112 H112      -78.4811   26.3170  -75.8573 H         1 UNK         0.3022 
    113 H113      -77.0853   23.1239  -75.9992 H         1 UNK         0.0747 
    114 H114      -78.7413   22.2872  -74.3480 H         1 UNK         0.0793 
    115 H115      -77.4190   23.0840  -73.5144 H         1 UNK         0.0793 
    116 H116      -78.9559   23.9152  -73.7016 H         1 UNK         0.0793 
    117 H117      -79.8059   23.7621  -76.0551 H         1 UNK         0.3047 
    118 H118      -80.1921   25.7429  -78.8290 H         1 UNK         0.0822 
    119 H119      -79.7133   23.6666  -80.1438 H         1 UNK         0.0807 
    120 H120      -81.4401   23.9248  -79.9707 H         1 UNK         0.0807 
    121 H121      -80.6252   22.7083  -78.9858 H         1 UNK         0.0807 
    122 H122      -82.1119   24.1204  -77.5481 H         1 UNK         0.2946 
    123 H123      -83.2793   26.4385  -75.4373 H         1 UNK         0.1144 
    124 H124      -84.5893   24.3316  -75.2392 H         1 UNK         0.0793 
    125 H125      -83.2813   23.4009  -75.9506 H         1 UNK         0.0793 
    126 H126      -84.1434   24.6094  -76.9092 H         1 UNK         0.0793 
    127 H127      -81.6596   24.3116  -74.0778 H         1 UNK         0.2896 
@<TRIPOS>BOND
     1    1    2 1    
     2    1   67 1    
     3    1   68 1    
     4    1   69 1    
     5    2    3 2    
     6    2    4 am   BACKBONE|DICT|INTERRES
     7    4    5 1    
     8    4   70 1    
     9    5    6 1    
    10    5   65 1    
    11    5   71 1    
    12    6    7 1    
    13    6   72 1    
    14    6   73 1    
    15    7    8 1    
    16    8    9 1    
    17    8   74 1    
    18    8   75 1    
    19    9   10 ar   
    20    9   14 ar   
    21   10   11 ar   
    22   10   76 1    
    23   11   12 ar   
    24   11   48 1    
    25   12   13 ar   
    26   12   77 1    
    27   13   14 ar   
    28   13   15 1    
    29   14   78 1    
    30   15   16 1    
    31   15   79 1    
    32   15   80 1    
    33   16   17 1    
    34   17   18 1    
    35   17   81 1    
    36   17   82 1    
    37   18   19 1    
    38   18   22 1    
    39   18   83 1    
    40   19   20 am   BACKBONE|DICT|INTERRES
    41   19   21 2    
    42   20   84 1    
    43   20   85 1    
    44   22   23 am   BACKBONE|DICT|INTERRES
    45   22   86 1    
    46   23   24 2    
    47   23   25 1    
    48   25   26 1    
    49   25   27 1    
    50   25   87 1    
    51   26   88 1    
    52   26   89 1    
    53   26   90 1    
    54   27   28 am   BACKBONE|DICT|INTERRES
    55   27   91 1    
    56   28   29 2    
    57   28   30 1    
    58   30   31 1    
    59   30   32 1    
    60   30   92 1    
    61   31   93 1    
    62   31   94 1    
    63   31   95 1    
    64   32   33 am   BACKBONE|DICT|INTERRES
    65   32   96 1    
    66   33   34 2    
    67   33   35 1    
    68   35   36 1    
    69   35   37 1    
    70   35   97 1    
    71   36   98 1    
    72   36   99 1    
    73   36  100 1    
    74   37   38 am   BACKBONE|DICT|INTERRES
    75   37  101 1    
    76   38   39 2    
    77   38   40 1    
    78   40   41 1    
    79   40   42 1    
    80   40  102 1    
    81   41  103 1    
    82   41  104 1    
    83   41  105 1    
    84   42   43 am   BACKBONE|DICT|INTERRES
    85   42  106 1    
    86   43   44 2    
    87   43   45 1    
    88   45   46 1    
    89   45   49 1    
    90   45  107 1    
    91   46   47 1    
    92   46  108 1    
    93   46  109 1    
    94   47   48 1    
    95   48  110 1    
    96   48  111 1    
    97   49   50 am   BACKBONE|DICT|INTERRES
    98   49  112 1    
    99   50   51 2    
   100   50   52 1    
   101   52   53 1    
   102   52   54 1    
   103   52  113 1    
   104   53  114 1    
   105   53  115 1    
   106   53  116 1    
   107   54   55 am   BACKBONE|DICT|INTERRES
   108   54  117 1    
   109   55   56 2    
   110   55   57 1    
   111   57   58 1    
   112   57   59 1    
   113   57  118 1    
   114   58  119 1    
   115   58  120 1    
   116   58  121 1    
   117   59   60 am   BACKBONE|DICT|INTERRES
   118   59  122 1    
   119   60   61 2    
   120   60   62 1    
   121   62   63 1    
   122   62   64 1    
   123   62  123 1    
   124   63  124 1    
   125   63  125 1    
   126   63  126 1    
   127   64   65 am   BACKBONE|DICT|INTERRES
   128   64  127 1    
   129   65   66 2    
@<TRIPOS>SUBSTRUCTURE
     1 UNK         1 GROUP             0       ****    0 ROOT    
