@<TRIPOS>MOLECULE
3R135
127   129    1
SMALL
USER_CHARGES


@<TRIPOS>ATOM
      1 CA        -81.7163   25.5862  -69.9980 C.3       0 UNK        -0.1998 
      2 C         -82.3761   26.2039  -71.2215 C.2       0 UNK         0.4909 
      3 O         -83.5780   26.0293  -71.4231 O.2       0 UNK        -0.5240 
      4 N         -81.5956   26.9191  -72.0415 N.am      1 UNK        -0.4739 
      5 CA        -82.0540   27.5856  -73.2711 C.3       1 UNK         0.0864 
      6 C6        -81.3021   28.9195  -73.5237 C.3       11 UNK        -0.0881 
      7 S7        -81.5879   30.0964  -72.1487 S.3       11 UNK        -0.2682 
      8 C8        -80.0759   31.1275  -72.1333 C.3       11 UNK         0.0289 
      9 C9        -78.7588   30.3922  -71.8752 C.ar      11 UNK        -0.0687 
     10 C10       -78.7066   29.1228  -71.2848 C.ar      11 UNK        -0.0823 
     11 C11       -77.4958   28.4320  -71.1892 C.ar      11 UNK        -0.0830 
     12 C12       -76.3147   29.0519  -71.6035 C.ar      11 UNK        -0.1021 
     13 C13       -76.3395   30.3456  -72.1301 C.ar      11 UNK        -0.0753 
     14 C14       -77.5644   31.0046  -72.2713 C.ar      11 UNK        -0.0933 
     15 C15       -75.0479   31.0019  -72.5957 C.3       11 UNK         0.0166 
     16 S16       -73.8607   31.1802  -71.2273 S.3       11 UNK        -0.2615 
     17 C17       -72.4063   31.8805  -72.0850 C.3       11 UNK        -0.0865 
     18 CA        -71.3939   30.8308  -72.6306 C.3       10 UNK         0.0862 
     19 C         -70.8277   29.8691  -71.5512 C.2       10 UNK         0.5551 
     20 N         -70.0921   30.3922  -70.5798 N.am      10 UNK        -0.7319 
     21 O         -71.0476   28.6586  -71.5832 O.2       10 UNK        -0.5018 
     22 N         -71.9244   30.0851  -73.7754 N.am      10 UNK        -0.4509 
     23 C         -71.9978   30.5370  -75.0311 C.2       10 UNK         0.4899 
     24 O         -71.6671   31.6783  -75.3571 O.2       10 UNK        -0.4839 
     25 CA        -72.5524   29.5773  -76.1048 C.3       9 UNK         0.0222 
     26 CB        -71.8672   29.7775  -77.4732 C.3       9 UNK        -0.1966 
     27 N         -72.5506   28.1567  -75.7304 N.am      9 UNK        -0.4218 
     28 C         -71.4921   27.3781  -75.4565 C.2       9 UNK         0.5020 
     29 O         -70.3278   27.7773  -75.4111 O.2       9 UNK        -0.5274 
     30 CA        -71.7888   25.8896  -75.2056 C.3       8 UNK         0.0270 
     31 CB        -72.3692   25.6757  -73.7973 C.3       8 UNK        -0.1976 
     32 N         -72.6919   25.3219  -76.2120 N.am      8 UNK        -0.4313 
     33 C         -72.3832   25.1727  -77.5096 C.2       8 UNK         0.5041 
     34 O         -71.2733   25.4193  -77.9838 O.2       8 UNK        -0.5577 
     35 CA        -73.4969   24.6711  -78.4442 C.3       7 UNK         0.0284 
     36 CB        -73.6111   23.1393  -78.3835 C.3       7 UNK        -0.1958 
     37 N         -74.7968   25.2791  -78.1534 N.am      7 UNK        -0.4454 
     38 C         -75.0971   26.5710  -78.3504 C.2       7 UNK         0.5089 
     39 O         -74.3341   27.3804  -78.8768 O.2       7 UNK        -0.5125 
     40 CA        -76.4728   27.0517  -77.8523 C.3       6 UNK         0.0408 
     41 CB        -77.5584   26.7909  -78.9072 C.3       6 UNK        -0.1791 
     42 N         -76.8657   26.4473  -76.5761 N.am      6 UNK        -0.4762 
     43 C         -76.2022   26.6136  -75.4219 C.2       6 UNK         0.5007 
     44 O         -75.2040   27.3238  -75.3004 O.2       6 UNK        -0.5032 
     45 CA        -76.7141   25.8195  -74.2069 C.3       5 UNK         0.0783 
     46 C46       -77.9248   26.5358  -73.5707 C.3       11 UNK        -0.0857 
     47 S47       -78.3639   25.8787  -71.9212 S.3       11 UNK        -0.2512 
     48 C48       -77.4746   26.9742  -70.7530 C.3       11 UNK         0.0225 
     49 N         -77.0153   24.4339  -74.5736 N.am      5 UNK        -0.4615 
     50 C         -76.1037   23.5352  -74.9682 C.2       4 UNK         0.5053 
     51 O         -74.8940   23.7595  -75.0053 O.2       4 UNK        -0.5105 
     52 CA        -76.6397   22.1759  -75.4496 C.3       4 UNK         0.0263 
     53 CB        -76.9188   21.2508  -74.2546 C.3       4 UNK        -0.1981 
     54 N         -77.8508   22.3053  -76.2662 N.am      4 UNK        -0.4224 
     55 C         -77.8969   22.9078  -77.4643 C.2       3 UNK         0.4895 
     56 O         -76.9064   23.3523  -78.0410 O.2       3 UNK        -0.5091 
     57 CA        -79.2832   23.0913  -78.1098 C.3       3 UNK         0.0250 
     58 CB        -79.6284   21.8830  -78.9942 C.3       3 UNK        -0.1996 
     59 N         -80.3608   23.3148  -77.1391 N.am      3 UNK        -0.4254 
     60 C         -80.4071   24.3312  -76.2655 C.2       2 UNK         0.5004 
     61 O         -79.5552   25.2209  -76.2191 O.2       2 UNK        -0.5226 
     62 CA        -81.5633   24.2945  -75.2502 C.3       2 UNK         0.0269 
     63 CB        -81.5401   22.9864  -74.4350 C.3       2 UNK        -0.1926 
     64 N         -81.5267   25.4056  -74.2979 N.am      2 UNK        -0.4687 
     65 C         -82.0242   26.6350  -74.4934 C.2       1 UNK         0.5165 
     66 O         -82.4992   27.0111  -75.5661 O.2       1 UNK        -0.5079 
     67 H67       -82.2816   25.8356  -69.1004 H         1 UNK         0.0900 
     68 H68       -80.6955   25.9424  -69.8610 H         1 UNK         0.0900 
     69 H69       -81.6890   24.5011  -70.0939 H         1 UNK         0.0900 
     70 H70       -80.6071   26.9951  -71.8453 H         1 UNK         0.2959 
     71 H71       -83.1084   27.8427  -73.1450 H         1 UNK         0.1079 
     72 H72       -81.6498   29.3915  -74.4446 H         1 UNK         0.0837 
     73 H73       -80.2342   28.7403  -73.6561 H         1 UNK         0.0837 
     74 H74       -80.1944   31.8959  -71.3685 H         1 UNK         0.0685 
     75 H75       -80.0192   31.6501  -73.0895 H         1 UNK         0.0685 
     76 H76       -79.6130   28.6356  -70.9588 H         1 UNK         0.1434 
     77 H77       -75.3737   28.5221  -71.5412 H         1 UNK         0.1329 
     78 H78       -77.5918   31.9917  -72.7126 H         1 UNK         0.1335 
     79 H79       -74.6144   30.3886  -73.3855 H         1 UNK         0.0680 
     80 H80       -75.2424   31.9834  -73.0305 H         1 UNK         0.0680 
     81 H81       -71.8998   32.5420  -71.3806 H         1 UNK         0.1032 
     82 H82       -72.7431   32.5340  -72.8910 H         1 UNK         0.1032 
     83 H83       -70.5235   31.3782  -72.9985 H         1 UNK         0.0461 
     84 H84       -69.7185   29.7830  -69.8688 H         1 UNK         0.3453 
     85 H85       -69.9007   31.3810  -70.5416 H         1 UNK         0.3453 
     86 H86       -72.1625   29.1230  -73.5759 H         1 UNK         0.2984 
     87 H87       -73.6037   29.8430  -76.2244 H         1 UNK         0.0554 
     88 H88       -72.0059   30.7955  -77.8390 H         1 UNK         0.0847 
     89 H89       -72.2815   29.1068  -78.2259 H         1 UNK         0.0847 
     90 H90       -70.7936   29.5952  -77.4178 H         1 UNK         0.0847 
     91 H91       -73.4767   27.7321  -75.6765 H         1 UNK         0.3141 
     92 H92       -70.8425   25.3479  -75.2656 H         1 UNK         0.0743 
     93 H93       -71.6995   26.0765  -73.0349 H         1 UNK         0.0784 
     94 H94       -73.3338   26.1680  -73.6740 H         1 UNK         0.0784 
     95 H95       -72.5070   24.6156  -73.5834 H         1 UNK         0.0784 
     96 H96       -73.6056   25.0157  -75.8900 H         1 UNK         0.3213 
     97 H97       -73.2215   24.9485  -79.4640 H         1 UNK         0.0855 
     98 H98       -73.9100   22.7940  -77.3936 H         1 UNK         0.0814 
     99 H99       -72.6565   22.6674  -78.6198 H         1 UNK         0.0814 
    100 H100      -74.3427   22.7681  -79.1014 H         1 UNK         0.0814 
    101 H101      -75.5264   24.6597  -77.8097 H         1 UNK         0.3105 
    102 H102      -76.4087   28.1304  -77.6944 H         1 UNK         0.0547 
    103 H103      -77.3308   27.3167  -79.8352 H         1 UNK         0.0837 
    104 H104      -77.6411   25.7316  -79.1482 H         1 UNK         0.0837 
    105 H105      -78.5355   27.1361  -78.5685 H         1 UNK         0.0837 
    106 H106      -77.7078   25.8775  -76.5704 H         1 UNK         0.3020 
    107 H107      -75.9028   25.8037  -73.4756 H         1 UNK         0.1245 
    108 H108      -78.8051   26.4350  -74.2017 H         1 UNK         0.0781 
    109 H109      -77.7557   27.6101  -73.5314 H         1 UNK         0.0781 
    110 H110      -77.9243   26.8833  -69.7634 H         1 UNK         0.0836 
    111 H111      -76.4483   26.6167  -70.6557 H         1 UNK         0.0836 
    112 H112      -77.9933   24.1899  -74.6142 H         1 UNK         0.3022 
    113 H113      -75.8659   21.7141  -76.0667 H         1 UNK         0.0747 
    114 H114      -76.0244   21.1265  -73.6422 H         1 UNK         0.0793 
    115 H115      -77.2234   20.2574  -74.5846 H         1 UNK         0.0793 
    116 H116      -77.7035   21.6462  -73.6083 H         1 UNK         0.0793 
    117 H117      -78.7107   21.9533  -75.8727 H         1 UNK         0.3047 
    118 H118      -79.2317   23.9754  -78.7478 H         1 UNK         0.0822 
    119 H119      -80.5618   22.0401  -79.5351 H         1 UNK         0.0807 
    120 H120      -79.7275   20.9673  -78.4099 H         1 UNK         0.0807 
    121 H121      -78.8502   21.7111  -79.7395 H         1 UNK         0.0807 
    122 H122      -81.1004   22.6270  -77.1241 H         1 UNK         0.2946 
    123 H123      -82.4987   24.3454  -75.8125 H         1 UNK         0.1144 
    124 H124      -81.6758   22.1098  -75.0690 H         1 UNK         0.0793 
    125 H125      -82.3455   22.9666  -73.7000 H         1 UNK         0.0793 
    126 H126      -80.5988   22.8611  -73.8978 H         1 UNK         0.0793 
    127 H127      -81.1351   25.2054  -73.3897 H         1 UNK         0.2896 
@<TRIPOS>BOND
     1    1    2 1    
     2    1   67 1    
     3    1   68 1    
     4    1   69 1    
     5    2    3 2    
     6    2    4 am   BACKBONE|DICT|INTERRES
     7    4    5 1    
     8    4   70 1    
     9    5    6 1    
    10    5   65 1    
    11    5   71 1    
    12    6    7 1    
    13    6   72 1    
    14    6   73 1    
    15    7    8 1    
    16    8    9 1    
    17    8   74 1    
    18    8   75 1    
    19    9   10 ar   
    20    9   14 ar   
    21   10   11 ar   
    22   10   76 1    
    23   11   12 ar   
    24   11   48 1    
    25   12   13 ar   
    26   12   77 1    
    27   13   14 ar   
    28   13   15 1    
    29   14   78 1    
    30   15   16 1    
    31   15   79 1    
    32   15   80 1    
    33   16   17 1    
    34   17   18 1    
    35   17   81 1    
    36   17   82 1    
    37   18   19 1    
    38   18   22 1    
    39   18   83 1    
    40   19   20 am   BACKBONE|DICT|INTERRES
    41   19   21 2    
    42   20   84 1    
    43   20   85 1    
    44   22   23 am   BACKBONE|DICT|INTERRES
    45   22   86 1    
    46   23   24 2    
    47   23   25 1    
    48   25   26 1    
    49   25   27 1    
    50   25   87 1    
    51   26   88 1    
    52   26   89 1    
    53   26   90 1    
    54   27   28 am   BACKBONE|DICT|INTERRES
    55   27   91 1    
    56   28   29 2    
    57   28   30 1    
    58   30   31 1    
    59   30   32 1    
    60   30   92 1    
    61   31   93 1    
    62   31   94 1    
    63   31   95 1    
    64   32   33 am   BACKBONE|DICT|INTERRES
    65   32   96 1    
    66   33   34 2    
    67   33   35 1    
    68   35   36 1    
    69   35   37 1    
    70   35   97 1    
    71   36   98 1    
    72   36   99 1    
    73   36  100 1    
    74   37   38 am   BACKBONE|DICT|INTERRES
    75   37  101 1    
    76   38   39 2    
    77   38   40 1    
    78   40   41 1    
    79   40   42 1    
    80   40  102 1    
    81   41  103 1    
    82   41  104 1    
    83   41  105 1    
    84   42   43 am   BACKBONE|DICT|INTERRES
    85   42  106 1    
    86   43   44 2    
    87   43   45 1    
    88   45   46 1    
    89   45   49 1    
    90   45  107 1    
    91   46   47 1    
    92   46  108 1    
    93   46  109 1    
    94   47   48 1    
    95   48  110 1    
    96   48  111 1    
    97   49   50 am   BACKBONE|DICT|INTERRES
    98   49  112 1    
    99   50   51 2    
   100   50   52 1    
   101   52   53 1    
   102   52   54 1    
   103   52  113 1    
   104   53  114 1    
   105   53  115 1    
   106   53  116 1    
   107   54   55 am   BACKBONE|DICT|INTERRES
   108   54  117 1    
   109   55   56 2    
   110   55   57 1    
   111   57   58 1    
   112   57   59 1    
   113   57  118 1    
   114   58  119 1    
   115   58  120 1    
   116   58  121 1    
   117   59   60 am   BACKBONE|DICT|INTERRES
   118   59  122 1    
   119   60   61 2    
   120   60   62 1    
   121   62   63 1    
   122   62   64 1    
   123   62  123 1    
   124   63  124 1    
   125   63  125 1    
   126   63  126 1    
   127   64   65 am   BACKBONE|DICT|INTERRES
   128   64  127 1    
   129   65   66 2    
@<TRIPOS>SUBSTRUCTURE
     1 UNK         1 GROUP             0       ****    0 ROOT    
