@<TRIPOS>MOLECULE
3R135
127   129    1
SMALL
USER_CHARGES


@<TRIPOS>ATOM
      1 CA        -82.4722   22.0126  -72.8604 C.3       0 UNK        -0.1998 
      2 C         -81.5729   23.2387  -72.8435 C.2       0 UNK         0.4909 
      3 O         -80.4245   23.1564  -73.2800 O.2       0 UNK        -0.5240 
      4 N         -82.0928   24.3776  -72.3596 N.am      1 UNK        -0.4739 
      5 CA        -81.3941   25.6658  -72.2369 C.3       1 UNK         0.0864 
      6 C6        -80.3187   25.6306  -71.1150 C.3       11 UNK        -0.0881 
      7 S7        -79.8372   27.2888  -70.5182 S.3       11 UNK        -0.2682 
      8 C8        -78.0576   27.3151  -70.9140 C.3       11 UNK         0.0289 
      9 C9        -77.6011   28.6939  -71.3562 C.ar      11 UNK        -0.0687 
     10 C10       -78.0526   29.2055  -72.5721 C.ar      11 UNK        -0.0823 
     11 C11       -77.6373   30.4591  -73.0231 C.ar      11 UNK        -0.0830 
     12 C12       -76.7510   31.2079  -72.2370 C.ar      11 UNK        -0.1021 
     13 C13       -76.3101   30.7168  -71.0004 C.ar      11 UNK        -0.0753 
     14 C14       -76.7338   29.4548  -70.5703 C.ar      11 UNK        -0.0933 
     15 C15       -75.4465   31.5700  -70.0795 C.3       11 UNK         0.0166 
     16 S16       -73.7847   30.8680  -69.8139 S.3       11 UNK        -0.2615 
     17 C17       -72.7637   31.8205  -70.9913 C.3       11 UNK        -0.0865 
     18 CA        -71.8063   30.9949  -71.8982 C.3       10 UNK         0.0862 
     19 C         -70.6616   30.2350  -71.1580 C.2       10 UNK         0.5551 
     20 N         -70.0965   29.1795  -71.7339 N.am      10 UNK        -0.7319 
     21 O         -70.2402   30.6357  -70.0753 O.2       10 UNK        -0.5018 
     22 N         -72.5038   30.2599  -72.9641 N.am      10 UNK        -0.4509 
     23 C         -73.0913   29.0566  -72.9045 C.2       10 UNK         0.4899 
     24 O         -73.1811   28.3613  -71.8924 O.2       10 UNK        -0.4839 
     25 CA        -73.6502   28.5090  -74.2319 C.3       9 UNK         0.0222 
     26 CB        -73.6010   29.5229  -75.3991 C.3       9 UNK        -0.1966 
     27 N         -73.0106   27.2516  -74.6422 N.am      9 UNK        -0.4218 
     28 C         -71.6930   27.0131  -74.7482 C.2       9 UNK         0.5020 
     29 O         -70.8177   27.8466  -74.5020 O.2       9 UNK        -0.5274 
     30 CA        -71.2581   25.6017  -75.1828 C.3       8 UNK         0.0270 
     31 CB        -70.9731   24.7321  -73.9471 C.3       8 UNK        -0.1976 
     32 N         -72.2092   24.9011  -76.0512 N.am      8 UNK        -0.4313 
     33 C         -72.4801   25.2190  -77.3249 C.2       8 UNK         0.5041 
     34 O         -72.0010   26.1973  -77.9001 O.2       8 UNK        -0.5577 
     35 CA        -73.4104   24.2754  -78.1083 C.3       7 UNK         0.0284 
     36 CB        -73.7107   22.9406  -77.3942 C.3       7 UNK        -0.1958 
     37 N         -74.6698   24.9629  -78.3708 N.am      7 UNK        -0.4454 
     38 C         -75.1651   25.2719  -79.5767 C.2       7 UNK         0.5089 
     39 O         -74.6084   24.9823  -80.6370 O.2       7 UNK        -0.5125 
     40 CA        -76.5149   26.0218  -79.6285 C.3       6 UNK         0.0408 
     41 CB        -77.6016   25.1566  -80.2880 C.3       6 UNK        -0.1791 
     42 N         -76.9893   26.4631  -78.3139 N.am      6 UNK        -0.4762 
     43 C         -76.4846   27.5010  -77.6339 C.2       6 UNK         0.5007 
     44 O         -75.6372   28.2609  -78.1006 O.2       6 UNK        -0.5032 
     45 CA        -76.9656   27.6901  -76.1785 C.3       5 UNK         0.0783 
     46 C46       -78.0814   28.7624  -76.0789 C.3       11 UNK        -0.0857 
     47 S47       -77.3717   30.4292  -75.8136 S.3       11 UNK        -0.2512 
     48 C48       -78.2172   31.0278  -74.3136 C.3       11 UNK         0.0225 
     49 N         -77.3065   26.4187  -75.5193 N.am      5 UNK        -0.4615 
     50 C         -76.4146   25.4525  -75.2466 C.2       4 UNK         0.5053 
     51 O         -75.2067   25.5765  -75.4463 O.2       4 UNK        -0.5105 
     52 CA        -76.9361   24.1038  -74.7207 C.3       4 UNK         0.0263 
     53 CB        -76.9575   24.0689  -73.1896 C.3       4 UNK        -0.1981 
     54 N         -78.2588   23.7659  -75.2461 N.am      4 UNK        -0.4224 
     55 C         -78.4812   23.3995  -76.5161 C.2       3 UNK         0.4895 
     56 O         -77.5857   23.2065  -77.3375 O.2       3 UNK        -0.5091 
     57 CA        -79.9474   23.2813  -76.9616 C.3       3 UNK         0.0250 
     58 CB        -80.5279   21.9052  -76.5985 C.3       3 UNK        -0.1996 
     59 N         -80.7831   24.3468  -76.4007 N.am      3 UNK        -0.4254 
     60 C         -80.6702   25.6426  -76.7289 C.2       2 UNK         0.5004 
     61 O         -79.8829   26.0663  -77.5743 O.2       2 UNK        -0.5226 
     62 CA        -81.5555   26.6418  -75.9642 C.3       2 UNK         0.0269 
     63 CB        -82.8873   26.8526  -76.7012 C.3       2 UNK        -0.1926 
     64 N         -81.8220   26.2511  -74.5756 N.am      2 UNK        -0.4687 
     65 C         -80.8886   26.1538  -73.6165 C.2       1 UNK         0.5165 
     66 O         -79.6927   26.3678  -73.8196 O.2       1 UNK        -0.5079 
     67 H67       -82.6230   21.6716  -73.8842 H         1 UNK         0.0900 
     68 H68       -82.0096   21.2031  -72.2966 H         1 UNK         0.0900 
     69 H69       -83.4489   22.2161  -72.4220 H         1 UNK         0.0900 
     70 H70       -83.0494   24.3752  -72.0320 H         1 UNK         0.2959 
     71 H71       -82.1550   26.3859  -71.9305 H         1 UNK         0.1079 
     72 H72       -80.7209   25.1019  -70.2495 H         1 UNK         0.0837 
     73 H73       -79.4506   25.0490  -71.4205 H         1 UNK         0.0837 
     74 H74       -77.4898   26.9667  -70.0500 H         1 UNK         0.0685 
     75 H75       -77.8388   26.6270  -71.7271 H         1 UNK         0.0685 
     76 H76       -78.7559   28.6248  -73.1469 H         1 UNK         0.1434 
     77 H77       -76.4404   32.1900  -72.5666 H         1 UNK         0.1329 
     78 H78       -76.3947   29.0731  -69.6169 H         1 UNK         0.1335 
     79 H79       -75.9433   31.6370  -69.1105 H         1 UNK         0.0680 
     80 H80       -75.3748   32.5959  -70.4432 H         1 UNK         0.0680 
     81 H81       -73.4132   32.4219  -71.6284 H         1 UNK         0.1032 
     82 H82       -72.1862   32.5437  -70.4128 H         1 UNK         0.1032 
     83 H83       -71.2485   31.7462  -72.4585 H         1 UNK         0.0461 
     84 H84       -69.3451   28.7026  -71.2621 H         1 UNK         0.3453 
     85 H85       -70.4260   28.8437  -72.6313 H         1 UNK         0.3453 
     86 H86       -72.4666   30.7002  -73.8713 H         1 UNK         0.2984 
     87 H87       -74.6916   28.2722  -74.0188 H         1 UNK         0.0554 
     88 H88       -74.1809   30.4190  -75.1729 H         1 UNK         0.0847 
     89 H89       -74.0202   29.0956  -76.3071 H         1 UNK         0.0847 
     90 H90       -72.5816   29.8269  -75.6403 H         1 UNK         0.0847 
     91 H91       -73.6518   26.4952  -74.8711 H         1 UNK         0.3141 
     92 H92       -70.3251   25.7121  -75.7397 H         1 UNK         0.0743 
     93 H93       -70.2436   25.2116  -73.2925 H         1 UNK         0.0784 
     94 H94       -71.8748   24.5604  -73.3576 H         1 UNK         0.0784 
     95 H95       -70.5633   23.7618  -74.2285 H         1 UNK         0.0784 
     96 H96       -72.6757   24.0980  -75.6556 H         1 UNK         0.3213 
     97 H97       -72.8982   24.0443  -79.0446 H         1 UNK         0.0855 
     98 H98       -74.2538   23.0833  -76.4599 H         1 UNK         0.0814 
     99 H99       -72.7936   22.3924  -77.1739 H         1 UNK         0.0814 
    100 H100      -74.3218   22.2949  -78.0254 H         1 UNK         0.0814 
    101 H101      -75.1676   25.2843  -77.5496 H         1 UNK         0.3105 
    102 H102      -76.3687   26.9050  -80.2537 H         1 UNK         0.0547 
    103 H103      -78.5522   25.6872  -80.3457 H         1 UNK         0.0837 
    104 H104      -77.3196   24.8852  -81.3060 H         1 UNK         0.0837 
    105 H105      -77.7689   24.2292  -79.7409 H         1 UNK         0.0837 
    106 H106      -77.7393   25.9264  -77.8918 H         1 UNK         0.3020 
    107 H107      -76.1013   28.0646  -75.6370 H         1 UNK         0.1245 
    108 H108      -78.7697   28.5306  -75.2706 H         1 UNK         0.0781 
    109 H109      -78.7056   28.7810  -76.9749 H         1 UNK         0.0781 
    110 H110      -79.2824   30.8001  -74.3790 H         1 UNK         0.0836 
    111 H111      -78.1491   32.1166  -74.2961 H         1 UNK         0.0836 
    112 H112      -78.2728   26.2820  -75.2414 H         1 UNK         0.3022 
    113 H113      -76.2346   23.3368  -75.0545 H         1 UNK         0.0747 
    114 H114      -77.1558   23.0624  -72.8208 H         1 UNK         0.0793 
    115 H115      -76.0040   24.3920  -72.7693 H         1 UNK         0.0793 
    116 H116      -77.7329   24.7206  -72.7998 H         1 UNK         0.0793 
    117 H117      -79.0466   23.8494  -74.6094 H         1 UNK         0.3047 
    118 H118      -79.9691   23.3796  -78.0494 H         1 UNK         0.0822 
    119 H119      -79.9488   21.1068  -77.0644 H         1 UNK         0.0807 
    120 H120      -81.5562   21.8028  -76.9454 H         1 UNK         0.0807 
    121 H121      -80.5154   21.7269  -75.5234 H         1 UNK         0.0807 
    122 H122      -81.4315   24.0891  -75.6715 H         1 UNK         0.2946 
    123 H123      -81.0227   27.5950  -75.9457 H         1 UNK         0.1144 
    124 H124      -83.4864   27.6288  -76.2247 H         1 UNK         0.0793 
    125 H125      -83.4824   25.9391  -76.7324 H         1 UNK         0.0793 
    126 H126      -82.7167   27.1658  -77.7324 H         1 UNK         0.0793 
    127 H127      -82.7793   26.0306  -74.3405 H         1 UNK         0.2896 
@<TRIPOS>BOND
     1    1    2 1    
     2    1   67 1    
     3    1   68 1    
     4    1   69 1    
     5    2    3 2    
     6    2    4 am   BACKBONE|DICT|INTERRES
     7    4    5 1    
     8    4   70 1    
     9    5    6 1    
    10    5   65 1    
    11    5   71 1    
    12    6    7 1    
    13    6   72 1    
    14    6   73 1    
    15    7    8 1    
    16    8    9 1    
    17    8   74 1    
    18    8   75 1    
    19    9   10 ar   
    20    9   14 ar   
    21   10   11 ar   
    22   10   76 1    
    23   11   12 ar   
    24   11   48 1    
    25   12   13 ar   
    26   12   77 1    
    27   13   14 ar   
    28   13   15 1    
    29   14   78 1    
    30   15   16 1    
    31   15   79 1    
    32   15   80 1    
    33   16   17 1    
    34   17   18 1    
    35   17   81 1    
    36   17   82 1    
    37   18   19 1    
    38   18   22 1    
    39   18   83 1    
    40   19   20 am   BACKBONE|DICT|INTERRES
    41   19   21 2    
    42   20   84 1    
    43   20   85 1    
    44   22   23 am   BACKBONE|DICT|INTERRES
    45   22   86 1    
    46   23   24 2    
    47   23   25 1    
    48   25   26 1    
    49   25   27 1    
    50   25   87 1    
    51   26   88 1    
    52   26   89 1    
    53   26   90 1    
    54   27   28 am   BACKBONE|DICT|INTERRES
    55   27   91 1    
    56   28   29 2    
    57   28   30 1    
    58   30   31 1    
    59   30   32 1    
    60   30   92 1    
    61   31   93 1    
    62   31   94 1    
    63   31   95 1    
    64   32   33 am   BACKBONE|DICT|INTERRES
    65   32   96 1    
    66   33   34 2    
    67   33   35 1    
    68   35   36 1    
    69   35   37 1    
    70   35   97 1    
    71   36   98 1    
    72   36   99 1    
    73   36  100 1    
    74   37   38 am   BACKBONE|DICT|INTERRES
    75   37  101 1    
    76   38   39 2    
    77   38   40 1    
    78   40   41 1    
    79   40   42 1    
    80   40  102 1    
    81   41  103 1    
    82   41  104 1    
    83   41  105 1    
    84   42   43 am   BACKBONE|DICT|INTERRES
    85   42  106 1    
    86   43   44 2    
    87   43   45 1    
    88   45   46 1    
    89   45   49 1    
    90   45  107 1    
    91   46   47 1    
    92   46  108 1    
    93   46  109 1    
    94   47   48 1    
    95   48  110 1    
    96   48  111 1    
    97   49   50 am   BACKBONE|DICT|INTERRES
    98   49  112 1    
    99   50   51 2    
   100   50   52 1    
   101   52   53 1    
   102   52   54 1    
   103   52  113 1    
   104   53  114 1    
   105   53  115 1    
   106   53  116 1    
   107   54   55 am   BACKBONE|DICT|INTERRES
   108   54  117 1    
   109   55   56 2    
   110   55   57 1    
   111   57   58 1    
   112   57   59 1    
   113   57  118 1    
   114   58  119 1    
   115   58  120 1    
   116   58  121 1    
   117   59   60 am   BACKBONE|DICT|INTERRES
   118   59  122 1    
   119   60   61 2    
   120   60   62 1    
   121   62   63 1    
   122   62   64 1    
   123   62  123 1    
   124   63  124 1    
   125   63  125 1    
   126   63  126 1    
   127   64   65 am   BACKBONE|DICT|INTERRES
   128   64  127 1    
   129   65   66 2    
@<TRIPOS>SUBSTRUCTURE
     1 UNK         1 GROUP             0       ****    0 ROOT    
