@<TRIPOS>MOLECULE
3R135
127   129    1
SMALL
USER_CHARGES


@<TRIPOS>ATOM
      1 CA        -81.3980   29.0187  -69.7966 C.3       0 UNK        -0.1998 
      2 C         -82.1098   27.7047  -69.4831 C.2       0 UNK         0.4909 
      3 O         -82.9270   27.6680  -68.5646 O.2       0 UNK        -0.5240 
      4 N         -81.8377   26.6021  -70.1941 N.am      1 UNK        -0.4739 
      5 CA        -80.9502   26.4967  -71.3551 C.3       1 UNK         0.0864 
      6 C6        -80.0613   25.2199  -71.2928 C.3       11 UNK        -0.0881 
      7 S7        -78.6284   25.4499  -70.1890 S.3       11 UNK        -0.2682 
      8 C8        -77.2918   25.7864  -71.3875 C.3       11 UNK         0.0289 
      9 C9        -77.3787   27.1963  -71.9573 C.ar      11 UNK        -0.0687 
     10 C10       -78.2030   27.4724  -73.0523 C.ar      11 UNK        -0.0823 
     11 C11       -78.3226   28.7753  -73.5495 C.ar      11 UNK        -0.0830 
     12 C12       -77.5750   29.7990  -72.9610 C.ar      11 UNK        -0.1021 
     13 C13       -76.7194   29.5311  -71.8886 C.ar      11 UNK        -0.0753 
     14 C14       -76.6351   28.2308  -71.3837 C.ar      11 UNK        -0.0933 
     15 C15       -75.9061   30.6477  -71.2515 C.3       11 UNK         0.0166 
     16 S16       -74.1899   30.6721  -71.8595 S.3       11 UNK        -0.2615 
     17 C17       -74.3778   31.4534  -73.5002 C.3       11 UNK        -0.0865 
     18 CA        -73.4620   30.8102  -74.5725 C.3       10 UNK         0.0862 
     19 C         -73.7501   31.4201  -75.9692 C.2       10 UNK         0.5551 
     20 N         -74.2296   30.6246  -76.9130 N.am      10 UNK        -0.7319 
     21 O         -73.5603   32.6142  -76.1894 O.2       10 UNK        -0.5018 
     22 N         -72.0445   30.9712  -74.2145 N.am      10 UNK        -0.4509 
     23 C         -70.9742   30.3379  -74.7168 C.2       10 UNK         0.4899 
     24 O         -69.8360   30.7020  -74.4217 O.2       10 UNK        -0.4839 
     25 CA        -71.1552   29.1117  -75.6460 C.3       9 UNK         0.0222 
     26 CB        -69.8180   28.5984  -76.2204 C.3       9 UNK        -0.1966 
     27 N         -71.8755   27.9996  -75.0161 N.am      9 UNK        -0.4218 
     28 C         -71.6098   27.3988  -73.8449 C.2       9 UNK         0.5020 
     29 O         -70.6917   27.7114  -73.0856 O.2       9 UNK        -0.5274 
     30 CA        -72.5174   26.2140  -73.4717 C.3       8 UNK         0.0270 
     31 CB        -73.8684   26.7102  -72.9316 C.3       8 UNK        -0.1976 
     32 N         -72.7416   25.3021  -74.5960 N.am      8 UNK        -0.4313 
     33 C         -71.7884   24.5772  -75.2013 C.2       8 UNK         0.5041 
     34 O         -70.6164   24.5268  -74.8261 O.2       8 UNK        -0.5577 
     35 CA        -72.2094   23.7890  -76.4508 C.3       7 UNK         0.0284 
     36 CB        -72.8269   22.4334  -76.0675 C.3       7 UNK        -0.1958 
     37 N         -73.1518   24.5551  -77.2685 N.am      7 UNK        -0.4454 
     38 C         -72.7929   25.5186  -78.1290 C.2       7 UNK         0.5089 
     39 O         -71.6242   25.8058  -78.3876 O.2       7 UNK        -0.5125 
     40 CA        -73.9250   26.3007  -78.8198 C.3       6 UNK         0.0408 
     41 CB        -74.2587   25.6701  -80.1808 C.3       6 UNK        -0.1791 
     42 N         -75.1467   26.3881  -78.0159 N.am      6 UNK        -0.4762 
     43 C         -75.2729   27.1226  -76.9015 C.2       6 UNK         0.5007 
     44 O         -74.3741   27.8267  -76.4399 O.2       6 UNK        -0.5032 
     45 CA        -76.6163   27.0229  -76.1553 C.3       5 UNK         0.0783 
     46 C46       -77.6223   28.0612  -76.7148 C.3       11 UNK        -0.0857 
     47 S47       -79.3057   27.8790  -76.0283 S.3       11 UNK        -0.2512 
     48 C48       -79.2903   29.1076  -74.6828 C.3       11 UNK         0.0225 
     49 N         -77.1714   25.6656  -76.1512 N.am      5 UNK        -0.4615 
     50 C         -76.5695   24.5555  -75.7096 C.2       4 UNK         0.5053 
     51 O         -75.4170   24.5444  -75.2781 O.2       4 UNK        -0.5105 
     52 CA        -77.3695   23.2388  -75.7535 C.3       4 UNK         0.0263 
     53 CB        -77.4258   22.5923  -74.3591 C.3       4 UNK        -0.1981 
     54 N         -78.7398   23.3805  -76.2581 N.am      4 UNK        -0.4224 
     55 C         -79.1105   23.5961  -77.5256 C.2       3 UNK         0.4895 
     56 O         -78.3115   23.7003  -78.4561 O.2       3 UNK        -0.5091 
     57 CA        -80.6193   23.7615  -77.8031 C.3       3 UNK         0.0250 
     58 CB        -81.3047   22.3880  -77.9422 C.3       3 UNK        -0.1996 
     59 N         -81.3451   24.6310  -76.8569 N.am      3 UNK        -0.4254 
     60 C         -81.5631   24.4457  -75.5467 C.2       2 UNK         0.5004 
     61 O         -81.1490   23.4736  -74.9071 O.2       2 UNK        -0.5226 
     62 CA        -82.3579   25.5301  -74.8103 C.3       2 UNK         0.0269 
     63 CB        -83.8655   25.2259  -74.8246 C.3       2 UNK        -0.1926 
     64 N         -81.8637   25.5530  -73.4385 N.am      2 UNK        -0.4687 
     65 C         -81.7889   26.6251  -72.6447 C.2       1 UNK         0.5165 
     66 O         -82.3176   27.7042  -72.9152 O.2       1 UNK        -0.5079 
     67 H67       -81.5812   29.3286  -70.8251 H         1 UNK         0.0900 
     68 H68       -81.7571   29.8139  -69.1436 H         1 UNK         0.0900 
     69 H69       -80.3233   28.9230  -69.6415 H         1 UNK         0.0900 
     70 H70       -82.3392   25.7560  -69.9641 H         1 UNK         0.2959 
     71 H71       -80.2774   27.3526  -71.3807 H         1 UNK         0.1079 
     72 H72       -79.6694   24.9339  -72.2695 H         1 UNK         0.0837 
     73 H73       -80.6377   24.3610  -70.9444 H         1 UNK         0.0837 
     74 H74       -77.3079   25.0504  -72.1921 H         1 UNK         0.0685 
     75 H75       -76.3352   25.6516  -70.8806 H         1 UNK         0.0685 
     76 H76       -78.7712   26.6747  -73.5075 H         1 UNK         0.1434 
     77 H77       -77.6677   30.8107  -73.3312 H         1 UNK         0.1329 
     78 H78       -75.9880   28.0254  -70.5419 H         1 UNK         0.1335 
     79 H79       -76.3726   31.6185  -71.4268 H         1 UNK         0.0680 
     80 H80       -75.8906   30.5112  -70.1692 H         1 UNK         0.0680 
     81 H81       -74.1693   32.5204  -73.4001 H         1 UNK         0.1032 
     82 H82       -75.4191   31.3820  -73.8147 H         1 UNK         0.1032 
     83 H83       -73.7082   29.7495  -74.5958 H         1 UNK         0.0461 
     84 H84       -74.3419   29.6289  -76.7448 H         1 UNK         0.3453 
     85 H85       -74.4312   31.0077  -77.8226 H         1 UNK         0.3453 
     86 H86       -71.8671   31.7407  -73.5873 H         1 UNK         0.2984 
     87 H87       -71.7560   29.4322  -76.4959 H         1 UNK         0.0554 
     88 H88       -69.2940   29.3878  -76.7605 H         1 UNK         0.0847 
     89 H89       -69.9784   27.7783  -76.9209 H         1 UNK         0.0847 
     90 H90       -69.1510   28.2400  -75.4354 H         1 UNK         0.0847 
     91 H91       -72.7001   27.6885  -75.5228 H         1 UNK         0.3141 
     92 H92       -72.0216   25.6473  -72.6809 H         1 UNK         0.0743 
     93 H93       -73.7276   27.3436  -72.0547 H         1 UNK         0.0784 
     94 H94       -74.4130   27.2995  -73.6694 H         1 UNK         0.0784 
     95 H95       -74.5051   25.8774  -72.6341 H         1 UNK         0.0784 
     96 H96       -73.6997   25.2000  -74.9231 H         1 UNK         0.3213 
     97 H97       -71.3109   23.5921  -77.0403 H         1 UNK         0.0855 
     98 H98       -73.7179   22.5464  -75.4497 H         1 UNK         0.0814 
     99 H99       -72.1153   21.8320  -75.5004 H         1 UNK         0.0814 
    100 H100      -73.1025   21.8591  -76.9520 H         1 UNK         0.0814 
    101 H101      -74.1347   24.4247  -77.0701 H         1 UNK         0.3105 
    102 H102      -73.5625   27.3160  -78.9958 H         1 UNK         0.0547 
    103 H103      -74.6474   24.6566  -80.0735 H         1 UNK         0.0837 
    104 H104      -73.3708   25.6131  -80.8122 H         1 UNK         0.0837 
    105 H105      -74.9998   26.2594  -80.7208 H         1 UNK         0.0837 
    106 H106      -75.9355   25.8316  -78.3160 H         1 UNK         0.3020 
    107 H107      -76.4043   27.2776  -75.1161 H         1 UNK         0.1245 
    108 H108      -77.7101   27.9632  -77.7987 H         1 UNK         0.0781 
    109 H109      -77.2642   29.0766  -76.5328 H         1 UNK         0.0781 
    110 H110      -80.2959   29.1776  -74.2664 H         1 UNK         0.0836 
    111 H111      -79.0675   30.0872  -75.1087 H         1 UNK         0.0836 
    112 H112      -78.1203   25.5865  -76.4851 H         1 UNK         0.3022 
    113 H113      -76.8293   22.5650  -76.4214 H         1 UNK         0.0747 
    114 H114      -77.9002   21.6116  -74.3980 H         1 UNK         0.0793 
    115 H115      -76.4259   22.4485  -73.9469 H         1 UNK         0.0793 
    116 H116      -77.9867   23.2057  -73.6534 H         1 UNK         0.0793 
    117 H117      -79.4926   23.3112  -75.5744 H         1 UNK         0.3047 
    118 H118      -80.6974   24.2591  -78.7713 H         1 UNK         0.0822 
    119 H119      -82.3515   22.4949  -78.2269 H         1 UNK         0.0807 
    120 H120      -81.2670   21.8144  -77.0156 H         1 UNK         0.0807 
    121 H121      -80.8197   21.7876  -78.7131 H         1 UNK         0.0807 
    122 H122      -81.7080   25.4799  -77.2696 H         1 UNK         0.2946 
    123 H123      -82.1682   26.4961  -75.2851 H         1 UNK         0.1144 
    124 H124      -84.4284   25.9902  -74.2885 H         1 UNK         0.0793 
    125 H125      -84.0860   24.2624  -74.3631 H         1 UNK         0.0793 
    126 H126      -84.2493   25.1963  -75.8451 H         1 UNK         0.0793 
    127 H127      -81.4103   24.6890  -73.1663 H         1 UNK         0.2896 
@<TRIPOS>BOND
     1    1    2 1    
     2    1   67 1    
     3    1   68 1    
     4    1   69 1    
     5    2    3 2    
     6    2    4 am   BACKBONE|DICT|INTERRES
     7    4    5 1    
     8    4   70 1    
     9    5    6 1    
    10    5   65 1    
    11    5   71 1    
    12    6    7 1    
    13    6   72 1    
    14    6   73 1    
    15    7    8 1    
    16    8    9 1    
    17    8   74 1    
    18    8   75 1    
    19    9   10 ar   
    20    9   14 ar   
    21   10   11 ar   
    22   10   76 1    
    23   11   12 ar   
    24   11   48 1    
    25   12   13 ar   
    26   12   77 1    
    27   13   14 ar   
    28   13   15 1    
    29   14   78 1    
    30   15   16 1    
    31   15   79 1    
    32   15   80 1    
    33   16   17 1    
    34   17   18 1    
    35   17   81 1    
    36   17   82 1    
    37   18   19 1    
    38   18   22 1    
    39   18   83 1    
    40   19   20 am   BACKBONE|DICT|INTERRES
    41   19   21 2    
    42   20   84 1    
    43   20   85 1    
    44   22   23 am   BACKBONE|DICT|INTERRES
    45   22   86 1    
    46   23   24 2    
    47   23   25 1    
    48   25   26 1    
    49   25   27 1    
    50   25   87 1    
    51   26   88 1    
    52   26   89 1    
    53   26   90 1    
    54   27   28 am   BACKBONE|DICT|INTERRES
    55   27   91 1    
    56   28   29 2    
    57   28   30 1    
    58   30   31 1    
    59   30   32 1    
    60   30   92 1    
    61   31   93 1    
    62   31   94 1    
    63   31   95 1    
    64   32   33 am   BACKBONE|DICT|INTERRES
    65   32   96 1    
    66   33   34 2    
    67   33   35 1    
    68   35   36 1    
    69   35   37 1    
    70   35   97 1    
    71   36   98 1    
    72   36   99 1    
    73   36  100 1    
    74   37   38 am   BACKBONE|DICT|INTERRES
    75   37  101 1    
    76   38   39 2    
    77   38   40 1    
    78   40   41 1    
    79   40   42 1    
    80   40  102 1    
    81   41  103 1    
    82   41  104 1    
    83   41  105 1    
    84   42   43 am   BACKBONE|DICT|INTERRES
    85   42  106 1    
    86   43   44 2    
    87   43   45 1    
    88   45   46 1    
    89   45   49 1    
    90   45  107 1    
    91   46   47 1    
    92   46  108 1    
    93   46  109 1    
    94   47   48 1    
    95   48  110 1    
    96   48  111 1    
    97   49   50 am   BACKBONE|DICT|INTERRES
    98   49  112 1    
    99   50   51 2    
   100   50   52 1    
   101   52   53 1    
   102   52   54 1    
   103   52  113 1    
   104   53  114 1    
   105   53  115 1    
   106   53  116 1    
   107   54   55 am   BACKBONE|DICT|INTERRES
   108   54  117 1    
   109   55   56 2    
   110   55   57 1    
   111   57   58 1    
   112   57   59 1    
   113   57  118 1    
   114   58  119 1    
   115   58  120 1    
   116   58  121 1    
   117   59   60 am   BACKBONE|DICT|INTERRES
   118   59  122 1    
   119   60   61 2    
   120   60   62 1    
   121   62   63 1    
   122   62   64 1    
   123   62  123 1    
   124   63  124 1    
   125   63  125 1    
   126   63  126 1    
   127   64   65 am   BACKBONE|DICT|INTERRES
   128   64  127 1    
   129   65   66 2    
@<TRIPOS>SUBSTRUCTURE
     1 UNK         1 GROUP             0       ****    0 ROOT    
