@<TRIPOS>MOLECULE
3R135
127   129    1
SMALL
USER_CHARGES


@<TRIPOS>ATOM
      1 CA        -84.3555   30.7023  -76.0089 C.3       0 UNK        -0.1998 
      2 C         -82.9832   30.0454  -75.9809 C.2       0 UNK         0.4909 
      3 O         -82.2857   30.0463  -76.9962 O.2       0 UNK        -0.5240 
      4 N         -82.5928   29.4972  -74.8241 N.am      1 UNK        -0.4739 
      5 CA        -81.3392   28.7688  -74.6072 C.3       1 UNK         0.0864 
      6 C6        -80.6713   29.1667  -73.2620 C.3       11 UNK        -0.0881 
      7 S7        -81.7189   28.8897  -71.7903 S.3       11 UNK        -0.2682 
      8 C8        -80.7461   29.7396  -70.5012 C.3       11 UNK         0.0289 
      9 C9        -79.3407   29.1701  -70.3308 C.ar      11 UNK        -0.0687 
     10 C10       -79.1365   27.7902  -70.2300 C.ar      11 UNK        -0.0823 
     11 C11       -77.8491   27.2669  -70.0862 C.ar      11 UNK        -0.0830 
     12 C12       -76.7600   28.1412  -69.9986 C.ar      11 UNK        -0.1021 
     13 C13       -76.9461   29.5214  -70.1096 C.ar      11 UNK        -0.0753 
     14 C14       -78.2393   30.0299  -70.2688 C.ar      11 UNK        -0.0933 
     15 C15       -75.7512   30.4636  -70.0597 C.3       11 UNK         0.0166 
     16 S16       -75.4401   31.2550  -71.6706 S.3       11 UNK        -0.2615 
     17 C17       -74.7911   29.8734  -72.6734 C.3       11 UNK        -0.0865 
     18 CA        -73.3116   30.0985  -73.0881 C.3       10 UNK         0.0862 
     19 C         -72.3244   29.5173  -72.0416 C.2       10 UNK         0.5551 
     20 N         -71.8750   30.3287  -71.0943 N.am      10 UNK        -0.7319 
     21 O         -71.9999   28.3317  -72.0557 O.2       10 UNK        -0.5018 
     22 N         -73.0540   29.5708  -74.4337 N.am      10 UNK        -0.4509 
     23 C         -72.0814   30.0017  -75.2462 C.2       10 UNK         0.4899 
     24 O         -71.3029   30.9137  -74.9606 O.2       10 UNK        -0.4839 
     25 CA        -71.9901   29.3079  -76.6182 C.3       9 UNK         0.0222 
     26 CB        -70.8216   29.8183  -77.4888 C.3       9 UNK        -0.1966 
     27 N         -71.9711   27.8469  -76.5065 N.am      9 UNK        -0.4218 
     28 C         -71.0380   27.0768  -75.9257 C.2       9 UNK         0.5020 
     29 O         -70.0000   27.5130  -75.4257 O.2       9 UNK        -0.5274 
     30 CA        -71.2932   25.5556  -75.8835 C.3       8 UNK         0.0270 
     31 CB        -71.5434   25.1003  -74.4362 C.3       8 UNK        -0.1976 
     32 N         -72.4090   25.1105  -76.7263 N.am      8 UNK        -0.4313 
     33 C         -72.3883   25.0574  -78.0656 C.2       8 UNK         0.5041 
     34 O         -71.3918   25.3076  -78.7443 O.2       8 UNK        -0.5577 
     35 CA        -73.7127   24.7094  -78.7699 C.3       7 UNK         0.0284 
     36 CB        -73.9048   23.1868  -78.8531 C.3       7 UNK        -0.1958 
     37 N         -74.8827   25.3262  -78.1336 N.am      7 UNK        -0.4454 
     38 C         -75.0959   26.6491  -78.0538 C.2       7 UNK         0.5089 
     39 O         -74.3479   27.4937  -78.5447 O.2       7 UNK        -0.5125 
     40 CA        -76.3101   27.1146  -77.2327 C.3       6 UNK         0.0408 
     41 CB        -77.6130   26.9675  -78.0335 C.3       6 UNK        -0.1791 
     42 N         -76.4206   26.3936  -75.9651 N.am      6 UNK        -0.4762 
     43 C         -75.5281   26.4595  -74.9683 C.2       6 UNK         0.5007 
     44 O         -74.5659   27.2269  -74.9703 O.2       6 UNK        -0.5032 
     45 CA        -75.7005   25.4746  -73.7975 C.3       5 UNK         0.0783 
     46 C46       -76.5771   26.0626  -72.6723 C.3       11 UNK        -0.0857 
     47 S47       -76.3100   25.1481  -71.1145 S.3       11 UNK        -0.2512 
     48 C48       -77.6543   25.7551  -70.0383 C.3       11 UNK         0.0225 
     49 N         -76.1968   24.1734  -74.2490 N.am      5 UNK        -0.4615 
     50 C         -75.4734   23.2871  -74.9415 C.2       4 UNK         0.5053 
     51 O         -74.3031   23.4711  -75.2720 O.2       4 UNK        -0.5105 
     52 CA        -76.1894   21.9937  -75.3626 C.3       4 UNK         0.0263 
     53 CB        -76.1890   20.9762  -74.2109 C.3       4 UNK        -0.1981 
     54 N         -77.5644   22.2316  -75.8109 N.am      4 UNK        -0.4224 
     55 C         -77.8834   22.9100  -76.9221 C.2       3 UNK         0.4895 
     56 O         -77.0528   23.3831  -77.6984 O.2       3 UNK        -0.5091 
     57 CA        -79.3816   23.1360  -77.1907 C.3       3 UNK         0.0250 
     58 CB        -80.0100   21.8889  -77.8331 C.3       3 UNK        -0.1996 
     59 N         -80.1637   23.5331  -76.0108 N.am      3 UNK        -0.4254 
     60 C         -79.9037   24.6043  -75.2484 C.2       2 UNK         0.5004 
     61 O         -78.8973   25.3029  -75.3716 O.2       2 UNK        -0.5226 
     62 CA        -80.9127   24.9513  -74.1428 C.3       2 UNK         0.0269 
     63 CB        -80.5018   24.2933  -72.8157 C.3       2 UNK        -0.1926 
     64 N         -80.9757   26.4046  -73.9595 N.am      2 UNK        -0.4687 
     65 C         -81.5577   27.2507  -74.8218 C.2       1 UNK         0.5165 
     66 O         -82.2353   26.8634  -75.7777 O.2       1 UNK        -0.5079 
     67 H67       -84.2629   31.7537  -76.2797 H         1 UNK         0.0900 
     68 H68       -84.8556   30.6442  -75.0422 H         1 UNK         0.0900 
     69 H69       -84.9897   30.2140  -76.7484 H         1 UNK         0.0900 
     70 H70       -83.2167   29.5123  -74.0292 H         1 UNK         0.2959 
     71 H71       -80.6306   29.0529  -75.3885 H         1 UNK         0.1079 
     72 H72       -79.7157   28.6547  -73.1338 H         1 UNK         0.0837 
     73 H73       -80.4206   30.2284  -73.2952 H         1 UNK         0.0837 
     74 H74       -81.2747   29.6568  -69.5508 H         1 UNK         0.0685 
     75 H75       -80.7062   30.8032  -70.7413 H         1 UNK         0.0685 
     76 H76       -79.9855   27.1220  -70.2795 H         1 UNK         0.1434 
     77 H77       -75.7623   27.7420  -69.8762 H         1 UNK         0.1329 
     78 H78       -78.3827   31.0987  -70.3517 H         1 UNK         0.1335 
     79 H79       -75.9418   31.2402  -69.3177 H         1 UNK         0.0680 
     80 H80       -74.8498   29.9423  -69.7328 H         1 UNK         0.0680 
     81 H81       -75.4290   29.8108  -73.5567 H         1 UNK         0.1032 
     82 H82       -74.9210   28.9222  -72.1559 H         1 UNK         0.1032 
     83 H83       -73.1396   31.1758  -73.1460 H         1 UNK         0.0461 
     84 H84       -72.1555   31.2967  -71.0656 H         1 UNK         0.3453 
     85 H85       -71.2442   29.9674  -70.3962 H         1 UNK         0.3453 
     86 H86       -73.5985   28.7547  -74.7067 H         1 UNK         0.2984 
     87 H87       -72.9146   29.5541  -77.1424 H         1 UNK         0.0554 
     88 H88       -70.9130   30.8894  -77.6730 H         1 UNK         0.0847 
     89 H89       -70.8059   29.3232  -78.4598 H         1 UNK         0.0847 
     90 H90       -69.8548   29.6542  -77.0124 H         1 UNK         0.0847 
     91 H91       -72.7926   27.3824  -76.8729 H         1 UNK         0.3141 
     92 H92       -70.3853   25.0655  -76.2413 H         1 UNK         0.0743 
     93 H93       -70.6924   25.3420  -73.7980 H         1 UNK         0.0784 
     94 H94       -72.4163   25.5925  -74.0078 H         1 UNK         0.0784 
     95 H95       -71.6975   24.0228  -74.3760 H         1 UNK         0.0784 
     96 H96       -73.2427   24.7858  -76.2427 H         1 UNK         0.3213 
     97 H97       -73.6523   25.0978  -79.7889 H         1 UNK         0.0855 
     98 H98       -73.9961   22.7348  -77.8654 H         1 UNK         0.0814 
     99 H99       -73.0579   22.7135  -79.3516 H         1 UNK         0.0814 
    100 H100      -74.7996   22.9309  -79.4208 H         1 UNK         0.0814 
    101 H101      -75.5803   24.6954  -77.7472 H         1 UNK         0.3105 
    102 H102      -76.1732   28.1733  -77.0021 H         1 UNK         0.0547 
    103 H103      -77.5635   27.5318  -78.9655 H         1 UNK         0.0837 
    104 H104      -77.8159   25.9282  -78.2915 H         1 UNK         0.0837 
    105 H105      -78.4679   27.3428  -77.4706 H         1 UNK         0.0837 
    106 H106      -77.2423   25.8023  -75.8418 H         1 UNK         0.3020 
    107 H107      -74.6977   25.3215  -73.3922 H         1 UNK         0.1245 
    108 H108      -77.6337   26.0462  -72.9432 H         1 UNK         0.0781 
    109 H109      -76.3236   27.1078  -72.4976 H         1 UNK         0.0781 
    110 H110      -78.5738   25.2403  -70.3197 H         1 UNK         0.0836 
    111 H111      -77.4418   25.4595  -69.0102 H         1 UNK         0.0836 
    112 H112      -77.1668   23.9723  -74.0598 H         1 UNK         0.3022 
    113 H113      -75.6318   21.5639  -76.1976 H         1 UNK         0.0747 
    114 H114      -75.1718   20.7712  -73.8739 H         1 UNK         0.0793 
    115 H115      -76.6231   20.0255  -74.5213 H         1 UNK         0.0793 
    116 H116      -76.7510   21.3375  -73.3486 H         1 UNK         0.0793 
    117 H117      -78.3102   21.8794  -75.2288 H         1 UNK         0.3047 
    118 H118      -79.4544   23.9552  -77.9092 H         1 UNK         0.0822 
    119 H119      -81.0360   22.0790  -78.1488 H         1 UNK         0.0807 
    120 H120      -80.0208   21.0405  -77.1479 H         1 UNK         0.0807 
    121 H121      -79.4528   21.5841  -78.7204 H         1 UNK         0.0807 
    122 H122      -81.0015   22.9991  -75.8283 H         1 UNK         0.2946 
    123 H123      -81.9021   24.5891  -74.4314 H         1 UNK         0.1144 
    124 H124      -80.4986   23.2060  -72.9030 H         1 UNK         0.0793 
    125 H125      -81.1947   24.5503  -72.0142 H         1 UNK         0.0793 
    126 H126      -79.5023   24.5966  -72.5047 H         1 UNK         0.0793 
    127 H127      -80.4406   26.7894  -73.1956 H         1 UNK         0.2896 
@<TRIPOS>BOND
     1    1    2 1    
     2    1   67 1    
     3    1   68 1    
     4    1   69 1    
     5    2    3 2    
     6    2    4 am   BACKBONE|DICT|INTERRES
     7    4    5 1    
     8    4   70 1    
     9    5    6 1    
    10    5   65 1    
    11    5   71 1    
    12    6    7 1    
    13    6   72 1    
    14    6   73 1    
    15    7    8 1    
    16    8    9 1    
    17    8   74 1    
    18    8   75 1    
    19    9   10 ar   
    20    9   14 ar   
    21   10   11 ar   
    22   10   76 1    
    23   11   12 ar   
    24   11   48 1    
    25   12   13 ar   
    26   12   77 1    
    27   13   14 ar   
    28   13   15 1    
    29   14   78 1    
    30   15   16 1    
    31   15   79 1    
    32   15   80 1    
    33   16   17 1    
    34   17   18 1    
    35   17   81 1    
    36   17   82 1    
    37   18   19 1    
    38   18   22 1    
    39   18   83 1    
    40   19   20 am   BACKBONE|DICT|INTERRES
    41   19   21 2    
    42   20   84 1    
    43   20   85 1    
    44   22   23 am   BACKBONE|DICT|INTERRES
    45   22   86 1    
    46   23   24 2    
    47   23   25 1    
    48   25   26 1    
    49   25   27 1    
    50   25   87 1    
    51   26   88 1    
    52   26   89 1    
    53   26   90 1    
    54   27   28 am   BACKBONE|DICT|INTERRES
    55   27   91 1    
    56   28   29 2    
    57   28   30 1    
    58   30   31 1    
    59   30   32 1    
    60   30   92 1    
    61   31   93 1    
    62   31   94 1    
    63   31   95 1    
    64   32   33 am   BACKBONE|DICT|INTERRES
    65   32   96 1    
    66   33   34 2    
    67   33   35 1    
    68   35   36 1    
    69   35   37 1    
    70   35   97 1    
    71   36   98 1    
    72   36   99 1    
    73   36  100 1    
    74   37   38 am   BACKBONE|DICT|INTERRES
    75   37  101 1    
    76   38   39 2    
    77   38   40 1    
    78   40   41 1    
    79   40   42 1    
    80   40  102 1    
    81   41  103 1    
    82   41  104 1    
    83   41  105 1    
    84   42   43 am   BACKBONE|DICT|INTERRES
    85   42  106 1    
    86   43   44 2    
    87   43   45 1    
    88   45   46 1    
    89   45   49 1    
    90   45  107 1    
    91   46   47 1    
    92   46  108 1    
    93   46  109 1    
    94   47   48 1    
    95   48  110 1    
    96   48  111 1    
    97   49   50 am   BACKBONE|DICT|INTERRES
    98   49  112 1    
    99   50   51 2    
   100   50   52 1    
   101   52   53 1    
   102   52   54 1    
   103   52  113 1    
   104   53  114 1    
   105   53  115 1    
   106   53  116 1    
   107   54   55 am   BACKBONE|DICT|INTERRES
   108   54  117 1    
   109   55   56 2    
   110   55   57 1    
   111   57   58 1    
   112   57   59 1    
   113   57  118 1    
   114   58  119 1    
   115   58  120 1    
   116   58  121 1    
   117   59   60 am   BACKBONE|DICT|INTERRES
   118   59  122 1    
   119   60   61 2    
   120   60   62 1    
   121   62   63 1    
   122   62   64 1    
   123   62  123 1    
   124   63  124 1    
   125   63  125 1    
   126   63  126 1    
   127   64   65 am   BACKBONE|DICT|INTERRES
   128   64  127 1    
   129   65   66 2    
@<TRIPOS>SUBSTRUCTURE
     1 UNK         1 GROUP             0       ****    0 ROOT    
