@<TRIPOS>MOLECULE
3R135
127   129    1
SMALL
USER_CHARGES


@<TRIPOS>ATOM
      1 CA        -84.4824   30.3748  -73.6696 C.3       0 UNK        -0.1998 
      2 C         -83.2036   29.5793  -73.4542 C.2       0 UNK         0.4909 
      3 O         -82.5914   29.1308  -74.4240 O.2       0 UNK        -0.5240 
      4 N         -82.7923   29.4093  -72.1917 N.am      1 UNK        -0.4739 
      5 CA        -81.6102   28.6388  -71.7926 C.3       1 UNK         0.0864 
      6 C6        -81.2034   28.9323  -70.3253 C.3       11 UNK        -0.0881 
      7 S7        -80.6576   30.6647  -70.1102 S.3       11 UNK        -0.2682 
      8 C8        -78.8387   30.5093  -70.0413 C.3       11 UNK         0.0289 
      9 C9        -78.2912   29.6730  -71.1892 C.ar      11 UNK        -0.0687 
     10 C10       -78.3810   30.1356  -72.5062 C.ar      11 UNK        -0.0823 
     11 C11       -77.9874   29.3251  -73.5764 C.ar      11 UNK        -0.0830 
     12 C12       -77.4698   28.0545  -73.3043 C.ar      11 UNK        -0.1021 
     13 C13       -77.3270   27.6006  -71.9921 C.ar      11 UNK        -0.0753 
     14 C14       -77.7446   28.4117  -70.9361 C.ar      11 UNK        -0.0933 
     15 C15       -76.7393   26.2242  -71.7262 C.3       11 UNK         0.0166 
     16 S16       -75.0195   26.0950  -72.3048 S.3       11 UNK        -0.2615 
     17 C17       -74.1246   27.1772  -71.1367 C.3       11 UNK        -0.0865 
     18 CA        -74.0027   28.6602  -71.5867 C.3       10 UNK         0.0862 
     19 C         -73.1251   29.4446  -70.5726 C.2       10 UNK         0.5551 
     20 N         -73.7399   30.1192  -69.6105 N.am      10 UNK        -0.7319 
     21 O         -71.8970   29.4000  -70.6204 O.2       10 UNK        -0.5018 
     22 N         -73.5516   28.7768  -72.9817 N.am      10 UNK        -0.4509 
     23 C         -73.3425   29.9060  -73.6685 C.2       10 UNK         0.4899 
     24 O         -73.4639   31.0326  -73.1839 O.2       10 UNK        -0.4839 
     25 CA        -72.9615   29.7571  -75.1602 C.3       9 UNK         0.0222 
     26 CB        -72.5719   31.0997  -75.8081 C.3       9 UNK        -0.1966 
     27 N         -71.9035   28.7756  -75.4368 N.am      9 UNK        -0.4218 
     28 C         -72.0580   27.4469  -75.4101 C.2       9 UNK         0.5020 
     29 O         -73.0675   26.8852  -74.9885 O.2       9 UNK        -0.5274 
     30 CA        -70.9067   26.5873  -75.9301 C.3       8 UNK         0.0270 
     31 CB        -70.0076   26.1062  -74.7771 C.3       8 UNK        -0.1976 
     32 N         -71.5109   25.4490  -76.6158 N.am      8 UNK        -0.4313 
     33 C         -70.9361   24.7152  -77.5735 C.2       8 UNK         0.5041 
     34 O         -69.7738   24.8672  -77.9524 O.2       8 UNK        -0.5577 
     35 CA        -71.8147   23.6474  -78.2400 C.3       7 UNK         0.0284 
     36 CB        -71.9830   22.4218  -77.3257 C.3       7 UNK        -0.1958 
     37 N         -73.1281   24.1922  -78.5924 N.am      7 UNK        -0.4454 
     38 C         -73.3972   24.8228  -79.7450 C.2       7 UNK         0.5089 
     39 O         -72.5732   24.9707  -80.6485 O.2       7 UNK        -0.5125 
     40 CA        -74.8235   25.3712  -79.9500 C.3       6 UNK         0.0408 
     41 CB        -75.6667   24.3737  -80.7600 C.3       6 UNK        -0.1791 
     42 N         -75.5255   25.6824  -78.7044 N.am      6 UNK        -0.4762 
     43 C         -75.2212   26.6976  -77.8812 C.2       6 UNK         0.5007 
     44 O         -74.3425   27.5262  -78.1204 O.2       6 UNK        -0.5032 
     45 CA        -76.0330   26.7914  -76.5676 C.3       5 UNK         0.0783 
     46 C46       -77.2247   27.7767  -76.7347 C.3       11 UNK        -0.0857 
     47 S47       -76.8162   29.4580  -76.1493 S.3       11 UNK        -0.2512 
     48 C48       -78.1965   29.8187  -75.0078 C.3       11 UNK         0.0225 
     49 N         -76.4711   25.4891  -76.0367 N.am      5 UNK        -0.4615 
     50 C         -75.7032   24.4032  -75.8363 C.2       4 UNK         0.5053 
     51 O         -74.4951   24.3668  -76.0705 O.2       4 UNK        -0.5105 
     52 CA        -76.3899   23.1078  -75.3565 C.3       4 UNK         0.0263 
     53 CB        -75.9762   22.7687  -73.9159 C.3       4 UNK        -0.1981 
     54 N         -77.8526   23.1229  -75.4450 N.am      4 UNK        -0.4224 
     55 C         -78.5675   23.2290  -76.5742 C.2       3 UNK         0.4895 
     56 O         -78.0635   23.2533  -77.6982 O.2       3 UNK        -0.5091 
     57 CA        -80.0963   23.3697  -76.4342 C.3       3 UNK         0.0250 
     58 CB        -80.7933   22.0725  -76.8769 C.3       3 UNK        -0.1996 
     59 N         -80.5821   23.7394  -75.0954 N.am      3 UNK        -0.4254 
     60 C         -80.2826   24.8642  -74.4294 C.2       2 UNK         0.5004 
     61 O         -79.4666   25.7014  -74.8238 O.2       2 UNK        -0.5226 
     62 CA        -80.9910   25.0611  -73.0830 C.3       2 UNK         0.0269 
     63 CB        -80.3749   24.1754  -71.9849 C.3       2 UNK        -0.1926 
     64 N         -80.9032   26.4658  -72.6910 N.am      2 UNK        -0.4687 
     65 C         -81.8467   27.1328  -72.0169 C.2       1 UNK         0.5165 
     66 O         -82.8718   26.6085  -71.5732 O.2       1 UNK        -0.5079 
     67 H67       -85.2262   29.7594  -74.1750 H         1 UNK         0.0900 
     68 H68       -84.9108   30.7209  -72.7290 H         1 UNK         0.0900 
     69 H69       -84.2814   31.2468  -74.2915 H         1 UNK         0.0900 
     70 H70       -83.3377   29.7924  -71.4331 H         1 UNK         0.2959 
     71 H71       -80.7921   28.9415  -72.4466 H         1 UNK         0.1079 
     72 H72       -80.4104   28.2601  -69.9939 H         1 UNK         0.0837 
     73 H73       -82.0435   28.7491  -69.6527 H         1 UNK         0.0837 
     74 H74       -78.3940   31.5048  -70.0734 H         1 UNK         0.0685 
     75 H75       -78.5584   30.0781  -69.0789 H         1 UNK         0.0685 
     76 H76       -78.8120   31.1095  -72.6957 H         1 UNK         0.1434 
     77 H77       -77.1659   27.4023  -74.1057 H         1 UNK         0.1329 
     78 H78       -77.6648   28.0523  -69.9193 H         1 UNK         0.1335 
     79 H79       -76.7922   25.9631  -70.6683 H         1 UNK         0.0680 
     80 H80       -77.3361   25.4860  -72.2606 H         1 UNK         0.0680 
     81 H81       -74.6067   27.1162  -70.1593 H         1 UNK         0.1032 
     82 H82       -73.1304   26.7454  -71.0053 H         1 UNK         0.1032 
     83 H83       -74.9998   29.1014  -71.5677 H         1 UNK         0.0461 
     84 H84       -73.1869   30.6190  -68.9319 H         1 UNK         0.3453 
     85 H85       -74.7459   30.1538  -69.5604 H         1 UNK         0.3453 
     86 H86       -73.4554   27.9005  -73.4901 H         1 UNK         0.2984 
     87 H87       -73.8636   29.4106  -75.6676 H         1 UNK         0.0554 
     88 H88       -73.3738   31.8321  -75.7052 H         1 UNK         0.0847 
     89 H89       -72.3821   30.9861  -76.8756 H         1 UNK         0.0847 
     90 H90       -71.6790   31.5254  -75.3486 H         1 UNK         0.0847 
     91 H91       -71.0181   29.1511  -75.7453 H         1 UNK         0.3141 
     92 H92       -70.3189   27.1688  -76.6435 H         1 UNK         0.0743 
     93 H93       -70.5691   25.5171  -74.0506 H         1 UNK         0.0784 
     94 H94       -69.1857   25.4910  -75.1434 H         1 UNK         0.0784 
     95 H95       -69.5687   26.9510  -74.2450 H         1 UNK         0.0784 
     96 H96       -72.4809   25.2786  -76.3584 H         1 UNK         0.3213 
     97 H97       -71.3073   23.3141  -79.1483 H         1 UNK         0.0855 
     98 H98       -72.4624   22.6768  -76.3802 H         1 UNK         0.0814 
     99 H99       -71.0142   21.9802  -77.0886 H         1 UNK         0.0814 
    100 H100      -72.5823   21.6487  -77.8066 H         1 UNK         0.0814 
    101 H101      -73.8341   24.1779  -77.8614 H         1 UNK         0.3105 
    102 H102      -74.7397   26.2934  -80.5288 H         1 UNK         0.0547 
    103 H103      -75.1842   24.1333  -81.7084 H         1 UNK         0.0837 
    104 H104      -75.8119   23.4365  -80.2209 H         1 UNK         0.0837 
    105 H105      -76.6501   24.7820  -80.9935 H         1 UNK         0.0837 
    106 H106      -76.2622   25.0472  -78.4252 H         1 UNK         0.3020 
    107 H107      -75.3573   27.1891  -75.8111 H         1 UNK         0.1245 
    108 H108      -78.0979   27.4255  -76.1861 H         1 UNK         0.0781 
    109 H109      -77.5657   27.8419  -77.7703 H         1 UNK         0.0781 
    110 H110      -79.1245   29.3993  -75.3995 H         1 UNK         0.0836 
    111 H111      -78.3359   30.9008  -75.0053 H         1 UNK         0.0836 
    112 H112      -77.4521   25.4202  -75.7941 H         1 UNK         0.3022 
    113 H113      -76.0312   22.3075  -76.0071 H         1 UNK         0.0747 
    114 H114      -76.3310   21.7804  -73.6233 H         1 UNK         0.0793 
    115 H115      -74.8902   22.7661  -73.8093 H         1 UNK         0.0793 
    116 H116      -76.3699   23.4914  -73.2022 H         1 UNK         0.0793 
    117 H117      -78.3574   23.1184  -74.5714 H         1 UNK         0.3047 
    118 H118      -80.3977   24.1675  -77.1162 H         1 UNK         0.0822 
    119 H119      -81.8771   22.1895  -76.8975 H         1 UNK         0.0807 
    120 H120      -80.5562   21.2402  -76.2130 H         1 UNK         0.0807 
    121 H121      -80.4838   21.7845  -77.8829 H         1 UNK         0.0807 
    122 H122      -81.2443   23.1003  -74.6784 H         1 UNK         0.2946 
    123 H123      -82.0404   24.7888  -73.2212 H         1 UNK         0.1144 
    124 H124      -80.9035   24.2961  -71.0391 H         1 UNK         0.0793 
    125 H125      -79.3269   24.4150  -71.8107 H         1 UNK         0.0793 
    126 H126      -80.4298   23.1187  -72.2494 H         1 UNK         0.0793 
    127 H127      -80.1102   26.9592  -73.0845 H         1 UNK         0.2896 
@<TRIPOS>BOND
     1    1    2 1    
     2    1   67 1    
     3    1   68 1    
     4    1   69 1    
     5    2    3 2    
     6    2    4 am   BACKBONE|DICT|INTERRES
     7    4    5 1    
     8    4   70 1    
     9    5    6 1    
    10    5   65 1    
    11    5   71 1    
    12    6    7 1    
    13    6   72 1    
    14    6   73 1    
    15    7    8 1    
    16    8    9 1    
    17    8   74 1    
    18    8   75 1    
    19    9   10 ar   
    20    9   14 ar   
    21   10   11 ar   
    22   10   76 1    
    23   11   12 ar   
    24   11   48 1    
    25   12   13 ar   
    26   12   77 1    
    27   13   14 ar   
    28   13   15 1    
    29   14   78 1    
    30   15   16 1    
    31   15   79 1    
    32   15   80 1    
    33   16   17 1    
    34   17   18 1    
    35   17   81 1    
    36   17   82 1    
    37   18   19 1    
    38   18   22 1    
    39   18   83 1    
    40   19   20 am   BACKBONE|DICT|INTERRES
    41   19   21 2    
    42   20   84 1    
    43   20   85 1    
    44   22   23 am   BACKBONE|DICT|INTERRES
    45   22   86 1    
    46   23   24 2    
    47   23   25 1    
    48   25   26 1    
    49   25   27 1    
    50   25   87 1    
    51   26   88 1    
    52   26   89 1    
    53   26   90 1    
    54   27   28 am   BACKBONE|DICT|INTERRES
    55   27   91 1    
    56   28   29 2    
    57   28   30 1    
    58   30   31 1    
    59   30   32 1    
    60   30   92 1    
    61   31   93 1    
    62   31   94 1    
    63   31   95 1    
    64   32   33 am   BACKBONE|DICT|INTERRES
    65   32   96 1    
    66   33   34 2    
    67   33   35 1    
    68   35   36 1    
    69   35   37 1    
    70   35   97 1    
    71   36   98 1    
    72   36   99 1    
    73   36  100 1    
    74   37   38 am   BACKBONE|DICT|INTERRES
    75   37  101 1    
    76   38   39 2    
    77   38   40 1    
    78   40   41 1    
    79   40   42 1    
    80   40  102 1    
    81   41  103 1    
    82   41  104 1    
    83   41  105 1    
    84   42   43 am   BACKBONE|DICT|INTERRES
    85   42  106 1    
    86   43   44 2    
    87   43   45 1    
    88   45   46 1    
    89   45   49 1    
    90   45  107 1    
    91   46   47 1    
    92   46  108 1    
    93   46  109 1    
    94   47   48 1    
    95   48  110 1    
    96   48  111 1    
    97   49   50 am   BACKBONE|DICT|INTERRES
    98   49  112 1    
    99   50   51 2    
   100   50   52 1    
   101   52   53 1    
   102   52   54 1    
   103   52  113 1    
   104   53  114 1    
   105   53  115 1    
   106   53  116 1    
   107   54   55 am   BACKBONE|DICT|INTERRES
   108   54  117 1    
   109   55   56 2    
   110   55   57 1    
   111   57   58 1    
   112   57   59 1    
   113   57  118 1    
   114   58  119 1    
   115   58  120 1    
   116   58  121 1    
   117   59   60 am   BACKBONE|DICT|INTERRES
   118   59  122 1    
   119   60   61 2    
   120   60   62 1    
   121   62   63 1    
   122   62   64 1    
   123   62  123 1    
   124   63  124 1    
   125   63  125 1    
   126   63  126 1    
   127   64   65 am   BACKBONE|DICT|INTERRES
   128   64  127 1    
   129   65   66 2    
@<TRIPOS>SUBSTRUCTURE
     1 UNK         1 GROUP             0       ****    0 ROOT    
