@<TRIPOS>MOLECULE
3R135
127   129    1
SMALL
USER_CHARGES


@<TRIPOS>ATOM
      1 CA        -83.5350   25.5577  -71.4011 C.3       0 UNK        -0.1998 
      2 C         -83.5820   25.9596  -72.8677 C.2       0 UNK         0.4909 
      3 O         -84.5835   25.7113  -73.5406 O.2       0 UNK        -0.5240 
      4 N         -82.5087   26.5866  -73.3627 N.am      1 UNK        -0.4739 
      5 CA        -82.3220   26.9550  -74.7694 C.3       1 UNK         0.0864 
      6 C6        -81.3255   28.1343  -74.9252 C.3       11 UNK        -0.0881 
      7 S7        -79.7074   27.8904  -74.1113 S.3       11 UNK        -0.2682 
      8 C8        -79.8879   28.9603  -72.6531 C.3       11 UNK         0.0289 
      9 C9        -78.5674   29.1262  -71.9196 C.ar      11 UNK        -0.0687 
     10 C10       -78.1406   28.1613  -71.0009 C.ar      11 UNK        -0.0823 
     11 C11       -76.9407   28.3326  -70.3034 C.ar      11 UNK        -0.0830 
     12 C12       -76.1773   29.4838  -70.5219 C.ar      11 UNK        -0.1021 
     13 C13       -76.5823   30.4441  -71.4528 C.ar      11 UNK        -0.0753 
     14 C14       -77.7810   30.2604  -72.1462 C.ar      11 UNK        -0.0933 
     15 C15       -75.7358   31.6881  -71.6944 C.3       11 UNK         0.0166 
     16 S16       -74.5194   31.4474  -73.0307 S.3       11 UNK        -0.2615 
     17 C17       -73.4318   30.1905  -72.2814 C.3       11 UNK        -0.0865 
     18 CA        -72.0282   30.0932  -72.9263 C.3       10 UNK         0.0862 
     19 C         -71.1739   29.0387  -72.1736 C.2       10 UNK         0.5551 
     20 N         -71.2618   27.7647  -72.5373 N.am      10 UNK        -0.7319 
     21 O         -70.4353   29.3799  -71.2535 O.2       10 UNK        -0.5018 
     22 N         -72.0908   29.8221  -74.3697 N.am      10 UNK        -0.4509 
     23 C         -71.1293   30.1654  -75.2357 C.2       10 UNK         0.4899 
     24 O         -70.1277   30.8147  -74.9282 O.2       10 UNK        -0.4839 
     25 CA        -71.3324   29.7003  -76.6891 C.3       9 UNK         0.0222 
     26 CB        -70.1741   30.1011  -77.6283 C.3       9 UNK        -0.1966 
     27 N         -71.6131   28.2630  -76.7767 N.am      9 UNK        -0.4218 
     28 C         -70.8148   27.2452  -76.4089 C.2       9 UNK         0.5020 
     29 O         -69.6705   27.3954  -75.9791 O.2       9 UNK        -0.5274 
     30 CA        -71.3762   25.8131  -76.5328 C.3       8 UNK         0.0270 
     31 CB        -71.1342   24.9987  -75.2484 C.3       8 UNK        -0.1976 
     32 N         -72.8096   25.8069  -76.8274 N.am      8 UNK        -0.4313 
     33 C         -73.3529   25.6962  -78.0474 C.2       8 UNK         0.5041 
     34 O         -72.7019   25.4846  -79.0709 O.2       8 UNK        -0.5577 
     35 CA        -74.8777   25.8901  -78.1524 C.3       7 UNK         0.0284 
     36 CB        -75.5880   24.5288  -78.2297 C.3       7 UNK        -0.1958 
     37 N         -75.4373   26.6759  -77.0457 N.am      7 UNK        -0.4454 
     38 C         -75.1791   27.9757  -76.8311 C.2       7 UNK         0.5089 
     39 O         -74.4789   28.6569  -77.5793 O.2       7 UNK        -0.5125 
     40 CA        -75.7221   28.6138  -75.5390 C.3       6 UNK         0.0408 
     41 CB        -77.0494   29.3258  -75.8271 C.3       6 UNK        -0.1791 
     42 N         -75.8797   27.6591  -74.4341 N.am      6 UNK        -0.4762 
     43 C         -74.8653   26.9752  -73.8826 C.2       6 UNK         0.5007 
     44 O         -73.6857   27.1701  -74.1877 O.2       6 UNK        -0.5032 
     45 CA        -75.1918   25.8601  -72.8634 C.3       5 UNK         0.0783 
     46 C46       -74.7954   26.2731  -71.4088 C.3       11 UNK        -0.0857 
     47 S47       -75.9391   25.7215  -70.0838 S.3       11 UNK        -0.2512 
     48 C48       -76.4634   27.2866  -69.3024 C.3       11 UNK         0.0225 
     49 N         -76.5275   25.2494  -72.9639 N.am      5 UNK        -0.4615 
     50 C         -77.1020   24.7134  -74.0477 C.2       4 UNK         0.5053 
     51 O         -76.7007   24.9127  -75.1946 O.2       4 UNK        -0.5105 
     52 CA        -78.2868   23.7579  -73.7824 C.3       4 UNK         0.0263 
     53 CB        -79.3318   24.3456  -72.8162 C.3       4 UNK        -0.1981 
     54 N         -78.9489   23.3147  -75.0149 N.am      4 UNK        -0.4224 
     55 C         -78.4224   22.4379  -75.8856 C.2       3 UNK         0.4895 
     56 O         -77.3595   21.8452  -75.6885 O.2       3 UNK        -0.5091 
     57 CA        -79.1962   22.1304  -77.1834 C.3       3 UNK         0.0250 
     58 CB        -79.6041   20.6472  -77.2342 C.3       3 UNK        -0.1996 
     59 N         -80.3944   22.9475  -77.3802 N.am      3 UNK        -0.4254 
     60 C         -80.4164   24.1987  -77.8581 C.2       2 UNK         0.5004 
     61 O         -79.4114   24.8275  -78.1885 O.2       2 UNK        -0.5226 
     62 CA        -81.7989   24.8697  -77.9914 C.3       2 UNK         0.0269 
     63 CB        -82.9786   23.8703  -78.0280 C.3       2 UNK        -0.1926 
     64 N         -82.0354   25.8893  -76.9607 N.am      2 UNK        -0.4687 
     65 C         -81.9440   25.7289  -75.6313 C.2       1 UNK         0.5165 
     66 O         -81.5914   24.6746  -75.0944 O.2       1 UNK        -0.5079 
     67 H67       -84.3503   26.0315  -70.8552 H         1 UNK         0.0900 
     68 H68       -83.6423   24.4775  -71.3059 H         1 UNK         0.0900 
     69 H69       -82.5964   25.8474  -70.9287 H         1 UNK         0.0900 
     70 H70       -81.6985   26.7269  -72.7780 H         1 UNK         0.2959 
     71 H71       -83.2876   27.2998  -75.1470 H         1 UNK         0.1079 
     72 H72       -81.1425   28.3536  -75.9785 H         1 UNK         0.0837 
     73 H73       -81.7879   29.0399  -74.5301 H         1 UNK         0.0837 
     74 H74       -80.2633   29.9371  -72.9624 H         1 UNK         0.0685 
     75 H75       -80.6376   28.5410  -71.9808 H         1 UNK         0.0685 
     76 H76       -78.7406   27.2782  -70.8292 H         1 UNK         0.1434 
     77 H77       -75.2567   29.6274  -69.9736 H         1 UNK         0.1329 
     78 H78       -78.1046   31.0060  -72.8594 H         1 UNK         0.1335 
     79 H79       -76.3808   32.5278  -71.9570 H         1 UNK         0.0680 
     80 H80       -75.2196   31.9800  -70.7784 H         1 UNK         0.0680 
     81 H81       -73.9441   29.2331  -72.3448 H         1 UNK         0.1032 
     82 H82       -73.3295   30.4160  -71.2182 H         1 UNK         0.1032 
     83 H83       -71.5446   31.0615  -72.7808 H         1 UNK         0.0461 
     84 H84       -71.9105   27.4900  -73.2642 H         1 UNK         0.3453 
     85 H85       -70.7050   27.0736  -72.0615 H         1 UNK         0.3453 
     86 H86       -72.8504   29.2316  -74.6781 H         1 UNK         0.2984 
     87 H87       -72.2291   30.2081  -77.0471 H         1 UNK         0.0554 
     88 H88       -69.2241   29.6681  -77.3138 H         1 UNK         0.0847 
     89 H89       -70.0451   31.1840  -77.6459 H         1 UNK         0.0847 
     90 H90       -70.3656   29.7818  -78.6527 H         1 UNK         0.0847 
     91 H91       -72.5381   28.0390  -77.1260 H         1 UNK         0.3141 
     92 H92       -70.8298   25.3280  -77.3442 H         1 UNK         0.0743 
     93 H93       -70.0697   24.9292  -75.0209 H         1 UNK         0.0784 
     94 H94       -71.6225   25.4478  -74.3838 H         1 UNK         0.0784 
     95 H95       -71.5071   23.9795  -75.3508 H         1 UNK         0.0784 
     96 H96       -73.4190   26.0169  -76.0463 H         1 UNK         0.3213 
     97 H97       -75.0765   26.4320  -79.0794 H         1 UNK         0.0855 
     98 H98       -75.4013   23.9234  -77.3418 H         1 UNK         0.0814 
     99 H99       -75.2431   23.9569  -79.0920 H         1 UNK         0.0814 
    100 H100      -76.6668   24.6485  -78.3297 H         1 UNK         0.0814 
    101 H101      -75.9986   26.1631  -76.3656 H         1 UNK         0.3105 
    102 H102      -75.0019   29.3682  -75.2181 H         1 UNK         0.0547 
    103 H103      -77.8050   28.6328  -76.1980 H         1 UNK         0.0837 
    104 H104      -76.9184   30.0975  -76.5867 H         1 UNK         0.0837 
    105 H105      -77.4408   29.8159  -74.9373 H         1 UNK         0.0837 
    106 H106      -76.8233   27.4409  -74.1429 H         1 UNK         0.3020 
    107 H107      -74.5183   25.0466  -73.1425 H         1 UNK         0.1245 
    108 H108      -74.6580   27.3484  -71.3176 H         1 UNK         0.0781 
    109 H109      -73.8113   25.8615  -71.1784 H         1 UNK         0.0781 
    110 H110      -75.6332   27.6731  -68.7090 H         1 UNK         0.0836 
    111 H111      -77.2659   27.0752  -68.5944 H         1 UNK         0.0836 
    112 H112      -76.9523   25.0699  -72.0648 H         1 UNK         0.3022 
    113 H113      -77.8641   22.8736  -73.3010 H         1 UNK         0.0747 
    114 H114      -80.1457   23.6412  -72.6431 H         1 UNK         0.0793 
    115 H115      -78.9026   24.5786  -71.8414 H         1 UNK         0.0793 
    116 H116      -79.7708   25.2586  -73.2087 H         1 UNK         0.0793 
    117 H117      -79.8327   23.7629  -75.2383 H         1 UNK         0.3047 
    118 H118      -78.5097   22.3214  -78.0112 H         1 UNK         0.0822 
    119 H119      -80.0943   20.4018  -78.1765 H         1 UNK         0.0807 
    120 H120      -80.2851   20.3883  -76.4224 H         1 UNK         0.0807 
    121 H121      -78.7326   19.9966  -77.1479 H         1 UNK         0.0807 
    122 H122      -81.2717   22.5361  -77.0956 H         1 UNK         0.2946 
    123 H123      -81.7835   25.3905  -78.9506 H         1 UNK         0.1144 
    124 H124      -83.9116   24.3806  -78.2676 H         1 UNK         0.0793 
    125 H125      -83.1233   23.3607  -77.0747 H         1 UNK         0.0793 
    126 H126      -82.8287   23.1090  -78.7951 H         1 UNK         0.0793 
    127 H127      -82.2959   26.8000  -77.3130 H         1 UNK         0.2896 
@<TRIPOS>BOND
     1    1    2 1    
     2    1   67 1    
     3    1   68 1    
     4    1   69 1    
     5    2    3 2    
     6    2    4 am   BACKBONE|DICT|INTERRES
     7    4    5 1    
     8    4   70 1    
     9    5    6 1    
    10    5   65 1    
    11    5   71 1    
    12    6    7 1    
    13    6   72 1    
    14    6   73 1    
    15    7    8 1    
    16    8    9 1    
    17    8   74 1    
    18    8   75 1    
    19    9   10 ar   
    20    9   14 ar   
    21   10   11 ar   
    22   10   76 1    
    23   11   12 ar   
    24   11   48 1    
    25   12   13 ar   
    26   12   77 1    
    27   13   14 ar   
    28   13   15 1    
    29   14   78 1    
    30   15   16 1    
    31   15   79 1    
    32   15   80 1    
    33   16   17 1    
    34   17   18 1    
    35   17   81 1    
    36   17   82 1    
    37   18   19 1    
    38   18   22 1    
    39   18   83 1    
    40   19   20 am   BACKBONE|DICT|INTERRES
    41   19   21 2    
    42   20   84 1    
    43   20   85 1    
    44   22   23 am   BACKBONE|DICT|INTERRES
    45   22   86 1    
    46   23   24 2    
    47   23   25 1    
    48   25   26 1    
    49   25   27 1    
    50   25   87 1    
    51   26   88 1    
    52   26   89 1    
    53   26   90 1    
    54   27   28 am   BACKBONE|DICT|INTERRES
    55   27   91 1    
    56   28   29 2    
    57   28   30 1    
    58   30   31 1    
    59   30   32 1    
    60   30   92 1    
    61   31   93 1    
    62   31   94 1    
    63   31   95 1    
    64   32   33 am   BACKBONE|DICT|INTERRES
    65   32   96 1    
    66   33   34 2    
    67   33   35 1    
    68   35   36 1    
    69   35   37 1    
    70   35   97 1    
    71   36   98 1    
    72   36   99 1    
    73   36  100 1    
    74   37   38 am   BACKBONE|DICT|INTERRES
    75   37  101 1    
    76   38   39 2    
    77   38   40 1    
    78   40   41 1    
    79   40   42 1    
    80   40  102 1    
    81   41  103 1    
    82   41  104 1    
    83   41  105 1    
    84   42   43 am   BACKBONE|DICT|INTERRES
    85   42  106 1    
    86   43   44 2    
    87   43   45 1    
    88   45   46 1    
    89   45   49 1    
    90   45  107 1    
    91   46   47 1    
    92   46  108 1    
    93   46  109 1    
    94   47   48 1    
    95   48  110 1    
    96   48  111 1    
    97   49   50 am   BACKBONE|DICT|INTERRES
    98   49  112 1    
    99   50   51 2    
   100   50   52 1    
   101   52   53 1    
   102   52   54 1    
   103   52  113 1    
   104   53  114 1    
   105   53  115 1    
   106   53  116 1    
   107   54   55 am   BACKBONE|DICT|INTERRES
   108   54  117 1    
   109   55   56 2    
   110   55   57 1    
   111   57   58 1    
   112   57   59 1    
   113   57  118 1    
   114   58  119 1    
   115   58  120 1    
   116   58  121 1    
   117   59   60 am   BACKBONE|DICT|INTERRES
   118   59  122 1    
   119   60   61 2    
   120   60   62 1    
   121   62   63 1    
   122   62   64 1    
   123   62  123 1    
   124   63  124 1    
   125   63  125 1    
   126   63  126 1    
   127   64   65 am   BACKBONE|DICT|INTERRES
   128   64  127 1    
   129   65   66 2    
@<TRIPOS>SUBSTRUCTURE
     1 UNK         1 GROUP             0       ****    0 ROOT    
