@<TRIPOS>MOLECULE
3R135
127   129    1
SMALL
USER_CHARGES


@<TRIPOS>ATOM
      1 CA        -86.0257   23.6411  -71.9016 C.3       0 UNK        -0.1998 
      2 C         -85.2913   24.9724  -71.8482 C.2       0 UNK         0.4909 
      3 O         -85.8421   25.9907  -72.2671 O.2       0 UNK        -0.5240 
      4 N         -84.0558   24.9714  -71.3290 N.am      1 UNK        -0.4739 
      5 CA        -83.1774   26.1443  -71.2414 C.3       1 UNK         0.0864 
      6 C6        -81.9989   25.8697  -70.2704 C.3       11 UNK        -0.0881 
      7 S7        -80.8662   27.2829  -70.0350 S.3       11 UNK        -0.2682 
      8 C8        -79.4244   26.6938  -70.9756 C.3       11 UNK         0.0289 
      9 C9        -78.6452   27.8400  -71.5960 C.ar      11 UNK        -0.0687 
     10 C10       -79.1652   28.5073  -72.7066 C.ar      11 UNK        -0.0823 
     11 C11       -78.4261   29.5017  -73.3524 C.ar      11 UNK        -0.0830 
     12 C12       -77.1570   29.8361  -72.8714 C.ar      11 UNK        -0.1021 
     13 C13       -76.6308   29.1812  -71.7528 C.ar      11 UNK        -0.0753 
     14 C14       -77.3818   28.1900  -71.1131 C.ar      11 UNK        -0.0933 
     15 C15       -75.2373   29.5187  -71.2519 C.3       11 UNK         0.0166 
     16 S16       -74.0429   28.2850  -71.8415 S.3       11 UNK        -0.2615 
     17 C17       -72.4640   29.0503  -71.3378 C.3       11 UNK        -0.0865 
     18 CA        -71.8146   29.9008  -72.4623 C.3       10 UNK         0.0862 
     19 C         -70.4400   30.4504  -71.9910 C.2       10 UNK         0.5551 
     20 N         -70.3950   31.6888  -71.5193 N.am      10 UNK        -0.7319 
     21 O         -69.4318   29.7469  -72.0010 O.2       10 UNK        -0.5018 
     22 N         -71.7540   29.1436  -73.7197 N.am      10 UNK        -0.4509 
     23 C         -71.2470   29.5420  -74.8925 C.2       10 UNK         0.4899 
     24 O         -70.7342   30.6456  -75.0830 O.2       10 UNK        -0.4839 
     25 CA        -71.3910   28.5590  -76.0721 C.3       9 UNK         0.0222 
     26 CB        -70.1741   28.5766  -77.0210 C.3       9 UNK        -0.1966 
     27 N         -71.7475   27.1913  -75.6680 N.am      9 UNK        -0.4218 
     28 C         -70.9825   26.2934  -75.0252 C.2       9 UNK         0.5020 
     29 O         -69.8201   26.4964  -74.6749 O.2       9 UNK        -0.5274 
     30 CA        -71.6247   24.9318  -74.7176 C.3       8 UNK         0.0270 
     31 CB        -72.3056   24.9503  -73.3379 C.3       8 UNK        -0.1976 
     32 N         -72.6013   24.5670  -75.7477 N.am      8 UNK        -0.4313 
     33 C         -72.3529   23.7232  -76.7576 C.2       8 UNK         0.5041 
     34 O         -71.3100   23.0777  -76.8736 O.2       8 UNK        -0.5577 
     35 CA        -73.4431   23.5732  -77.8317 C.3       7 UNK         0.0284 
     36 CB        -74.4797   22.5158  -77.4174 C.3       7 UNK        -0.1958 
     37 N         -74.1188   24.8303  -78.1711 N.am      7 UNK        -0.4454 
     38 C         -73.5357   25.8378  -78.8414 C.2       7 UNK         0.5089 
     39 O         -72.3497   25.8402  -79.1708 O.2       7 UNK        -0.5125 
     40 CA        -74.4119   27.0379  -79.2322 C.3       6 UNK         0.0408 
     41 CB        -75.1785   26.7368  -80.5300 C.3       6 UNK        -0.1791 
     42 N         -75.3663   27.3757  -78.1783 N.am      6 UNK        -0.4762 
     43 C         -75.3674   28.5148  -77.4691 C.2       6 UNK         0.5007 
     44 O         -74.6010   29.4568  -77.6695 O.2       6 UNK        -0.5032 
     45 CA        -76.4152   28.6193  -76.3388 C.3       5 UNK         0.0783 
     46 C46       -77.7089   29.2619  -76.9180 C.3       11 UNK        -0.0857 
     47 S47       -79.2382   29.0324  -75.9471 S.3       11 UNK        -0.2512 
     48 C48       -79.0122   30.1999  -74.5695 C.3       11 UNK         0.0225 
     49 N         -76.6729   27.3413  -75.6669 N.am      5 UNK        -0.4615 
     50 C         -75.7727   26.4729  -75.1838 C.2       4 UNK         0.5053 
     51 O         -74.5537   26.6456  -75.2112 O.2       4 UNK        -0.5105 
     52 CA        -76.3202   25.1239  -74.6872 C.3       4 UNK         0.0263 
     53 CB        -76.5289   25.1524  -73.1682 C.3       4 UNK        -0.1981 
     54 N         -77.5659   24.7096  -75.3456 N.am      4 UNK        -0.4224 
     55 C         -77.7635   24.5866  -76.6659 C.2       3 UNK         0.4895 
     56 O         -76.8880   24.7950  -77.5094 O.2       3 UNK        -0.5091 
     57 CA        -79.1843   24.2326  -77.1336 C.3       3 UNK         0.0250 
     58 CB        -79.4374   22.7155  -77.0396 C.3       3 UNK        -0.1996 
     59 N         -80.2547   25.0120  -76.4863 N.am      3 UNK        -0.4254 
     60 C         -80.6812   24.9721  -75.2144 C.2       2 UNK         0.5004 
     61 O         -80.1758   24.2621  -74.3403 O.2       2 UNK        -0.5226 
     62 CA        -81.8613   25.8918  -74.8637 C.3       2 UNK         0.0269 
     63 CB        -83.0738   25.6593  -75.7874 C.3       2 UNK        -0.1926 
     64 N         -82.2736   25.6680  -73.4781 N.am      2 UNK        -0.4687 
     65 C         -82.7286   26.6126  -72.6459 C.2       1 UNK         0.5165 
     66 O         -82.8367   27.7997  -72.9580 O.2       1 UNK        -0.5079 
     67 H67       -86.9536   23.7013  -71.3334 H         1 UNK         0.0900 
     68 H68       -85.4283   22.8279  -71.4895 H         1 UNK         0.0900 
     69 H69       -86.2730   23.3909  -72.9329 H         1 UNK         0.0900 
     70 H70       -83.6657   24.1017  -70.9943 H         1 UNK         0.2959 
     71 H71       -83.7670   26.9602  -70.8162 H         1 UNK         0.1079 
     72 H72       -81.4355   24.9910  -70.5893 H         1 UNK         0.0837 
     73 H73       -82.3978   25.6144  -69.2872 H         1 UNK         0.0837 
     74 H74       -78.7889   26.0972  -70.3194 H         1 UNK         0.0685 
     75 H75       -79.7429   26.0283  -71.7796 H         1 UNK         0.0685 
     76 H76       -80.1422   28.2377  -73.0835 H         1 UNK         0.1434 
     77 H77       -76.5741   30.5979  -73.3706 H         1 UNK         0.1329 
     78 H78       -76.9651   27.6690  -70.2620 H         1 UNK         0.1335 
     79 H79       -75.2274   29.5472  -70.1613 H         1 UNK         0.0680 
     80 H80       -74.9382   30.5102  -71.5956 H         1 UNK         0.0680 
     81 H81       -72.6239   29.6541  -70.4422 H         1 UNK         0.1032 
     82 H82       -71.7912   28.2441  -71.0379 H         1 UNK         0.1032 
     83 H83       -72.4692   30.7524  -72.6576 H         1 UNK         0.0461 
     84 H84       -69.5153   32.0565  -71.1917 H         1 UNK         0.3453 
     85 H85       -71.2188   32.2696  -71.4969 H         1 UNK         0.3453 
     86 H86       -72.1745   28.2274  -73.6814 H         1 UNK         0.2984 
     87 H87       -72.2441   28.9187  -76.6460 H         1 UNK         0.0554 
     88 H88       -70.3075   27.8791  -77.8483 H         1 UNK         0.0847 
     89 H89       -69.2504   28.3154  -76.5043 H         1 UNK         0.0847 
     90 H90       -70.0315   29.5672  -77.4541 H         1 UNK         0.0847 
     91 H91       -72.7257   26.9518  -75.8007 H         1 UNK         0.3141 
     92 H92       -70.8231   24.1911  -74.6801 H         1 UNK         0.0743 
     93 H93       -72.7461   23.9817  -73.1013 H         1 UNK         0.0784 
     94 H94       -71.5838   25.1784  -72.5525 H         1 UNK         0.0784 
     95 H95       -73.0945   25.6990  -73.2766 H         1 UNK         0.0784 
     96 H96       -73.4726   25.0857  -75.7419 H         1 UNK         0.3213 
     97 H97       -72.9520   23.2127  -78.7386 H         1 UNK         0.0855 
     98 H98       -73.9985   21.5574  -77.2178 H         1 UNK         0.0814 
     99 H99       -75.2142   22.3505  -78.2058 H         1 UNK         0.0814 
    100 H100      -75.0185   22.8015  -76.5152 H         1 UNK         0.0814 
    101 H101      -75.1139   24.8773  -77.9632 H         1 UNK         0.3105 
    102 H102      -73.7428   27.8794  -79.4239 H         1 UNK         0.0547 
    103 H103      -74.4929   26.4759  -81.3374 H         1 UNK         0.0837 
    104 H104      -75.8723   25.9040  -80.4076 H         1 UNK         0.0837 
    105 H105      -75.7515   27.6035  -80.8598 H         1 UNK         0.0837 
    106 H106      -76.0332   26.6554  -77.9235 H         1 UNK         0.3020 
    107 H107      -76.0030   29.2863  -75.5794 H         1 UNK         0.1245 
    108 H108      -77.9343   28.8447  -77.9022 H         1 UNK         0.0781 
    109 H109      -77.5541   30.3295  -77.0850 H         1 UNK         0.0781 
    110 H110      -79.9839   30.6170  -74.3010 H         1 UNK         0.0836 
    111 H111      -78.3942   31.0424  -74.8832 H         1 UNK         0.0836 
    112 H112      -77.6493   27.1015  -75.5807 H         1 UNK         0.3022 
    113 H113      -75.5654   24.3688  -74.9066 H         1 UNK         0.0747 
    114 H114      -76.7715   24.1627  -72.7811 H         1 UNK         0.0793 
    115 H115      -75.6310   25.4942  -72.6508 H         1 UNK         0.0793 
    116 H116      -77.3389   25.8259  -72.8961 H         1 UNK         0.0793 
    117 H117      -78.3657   24.5150  -74.7466 H         1 UNK         0.3047 
    118 H118      -79.2310   24.4998  -78.1907 H         1 UNK         0.0822 
    119 H119      -79.3884   22.3521  -76.0127 H         1 UNK         0.0807 
    120 H120      -78.6919   22.1621  -77.6124 H         1 UNK         0.0807 
    121 H121      -80.4155   22.4518  -77.4417 H         1 UNK         0.0807 
    122 H122      -80.7228   25.6605  -77.1046 H         1 UNK         0.2946 
    123 H123      -81.5100   26.9200  -74.9808 H         1 UNK         0.1144 
    124 H124      -82.8425   25.8975  -76.8259 H         1 UNK         0.0793 
    125 H125      -83.4104   24.6223  -75.7542 H         1 UNK         0.0793 
    126 H126      -83.9155   26.2898  -75.4994 H         1 UNK         0.0793 
    127 H127      -82.1467   24.7234  -73.1397 H         1 UNK         0.2896 
@<TRIPOS>BOND
     1    1    2 1    
     2    1   67 1    
     3    1   68 1    
     4    1   69 1    
     5    2    3 2    
     6    2    4 am   BACKBONE|DICT|INTERRES
     7    4    5 1    
     8    4   70 1    
     9    5    6 1    
    10    5   65 1    
    11    5   71 1    
    12    6    7 1    
    13    6   72 1    
    14    6   73 1    
    15    7    8 1    
    16    8    9 1    
    17    8   74 1    
    18    8   75 1    
    19    9   10 ar   
    20    9   14 ar   
    21   10   11 ar   
    22   10   76 1    
    23   11   12 ar   
    24   11   48 1    
    25   12   13 ar   
    26   12   77 1    
    27   13   14 ar   
    28   13   15 1    
    29   14   78 1    
    30   15   16 1    
    31   15   79 1    
    32   15   80 1    
    33   16   17 1    
    34   17   18 1    
    35   17   81 1    
    36   17   82 1    
    37   18   19 1    
    38   18   22 1    
    39   18   83 1    
    40   19   20 am   BACKBONE|DICT|INTERRES
    41   19   21 2    
    42   20   84 1    
    43   20   85 1    
    44   22   23 am   BACKBONE|DICT|INTERRES
    45   22   86 1    
    46   23   24 2    
    47   23   25 1    
    48   25   26 1    
    49   25   27 1    
    50   25   87 1    
    51   26   88 1    
    52   26   89 1    
    53   26   90 1    
    54   27   28 am   BACKBONE|DICT|INTERRES
    55   27   91 1    
    56   28   29 2    
    57   28   30 1    
    58   30   31 1    
    59   30   32 1    
    60   30   92 1    
    61   31   93 1    
    62   31   94 1    
    63   31   95 1    
    64   32   33 am   BACKBONE|DICT|INTERRES
    65   32   96 1    
    66   33   34 2    
    67   33   35 1    
    68   35   36 1    
    69   35   37 1    
    70   35   97 1    
    71   36   98 1    
    72   36   99 1    
    73   36  100 1    
    74   37   38 am   BACKBONE|DICT|INTERRES
    75   37  101 1    
    76   38   39 2    
    77   38   40 1    
    78   40   41 1    
    79   40   42 1    
    80   40  102 1    
    81   41  103 1    
    82   41  104 1    
    83   41  105 1    
    84   42   43 am   BACKBONE|DICT|INTERRES
    85   42  106 1    
    86   43   44 2    
    87   43   45 1    
    88   45   46 1    
    89   45   49 1    
    90   45  107 1    
    91   46   47 1    
    92   46  108 1    
    93   46  109 1    
    94   47   48 1    
    95   48  110 1    
    96   48  111 1    
    97   49   50 am   BACKBONE|DICT|INTERRES
    98   49  112 1    
    99   50   51 2    
   100   50   52 1    
   101   52   53 1    
   102   52   54 1    
   103   52  113 1    
   104   53  114 1    
   105   53  115 1    
   106   53  116 1    
   107   54   55 am   BACKBONE|DICT|INTERRES
   108   54  117 1    
   109   55   56 2    
   110   55   57 1    
   111   57   58 1    
   112   57   59 1    
   113   57  118 1    
   114   58  119 1    
   115   58  120 1    
   116   58  121 1    
   117   59   60 am   BACKBONE|DICT|INTERRES
   118   59  122 1    
   119   60   61 2    
   120   60   62 1    
   121   62   63 1    
   122   62   64 1    
   123   62  123 1    
   124   63  124 1    
   125   63  125 1    
   126   63  126 1    
   127   64   65 am   BACKBONE|DICT|INTERRES
   128   64  127 1    
   129   65   66 2    
@<TRIPOS>SUBSTRUCTURE
     1 UNK         1 GROUP             0       ****    0 ROOT    
