@<TRIPOS>MOLECULE
3R135
127   129    1
SMALL
USER_CHARGES


@<TRIPOS>ATOM
      1 CA        -83.5504   26.4444  -75.8981 C.3       0 UNK        -0.1998 
      2 C         -82.1519   26.9246  -76.2528 C.2       0 UNK         0.4909 
      3 O         -81.6819   26.6835  -77.3651 O.2       0 UNK        -0.5240 
      4 N         -81.4883   27.5998  -75.3068 N.am      1 UNK        -0.4739 
      5 CA        -80.1255   28.1401  -75.3847 C.3       1 UNK         0.0864 
      6 C6        -79.7448   28.9652  -74.1206 C.3       11 UNK        -0.0881 
      7 S7        -80.4500   28.3387  -72.5522 S.3       11 UNK        -0.2682 
      8 C8        -79.7061   29.4740  -71.3416 C.3       11 UNK         0.0289 
      9 C9        -78.2706   29.0824  -71.0352 C.ar      11 UNK        -0.0687 
     10 C10       -78.0137   27.9183  -70.3089 C.ar      11 UNK        -0.0823 
     11 C11       -76.7010   27.5152  -70.0610 C.ar      11 UNK        -0.0830 
     12 C12       -75.6407   28.3073  -70.5082 C.ar      11 UNK        -0.1021 
     13 C13       -75.8804   29.4862  -71.2274 C.ar      11 UNK        -0.0753 
     14 C14       -77.2027   29.8611  -71.4901 C.ar      11 UNK        -0.0933 
     15 C15       -74.7572   30.3622  -71.7841 C.3       11 UNK         0.0166 
     16 S16       -73.1156   30.1510  -71.0156 S.3       11 UNK        -0.2615 
     17 C17       -72.4985   28.6805  -71.9048 C.3       11 UNK        -0.0865 
     18 CA        -71.4726   29.0391  -73.0089 C.3       10 UNK         0.0862 
     19 C         -70.7941   27.7515  -73.5409 C.2       10 UNK         0.5551 
     20 N         -71.4191   27.0220  -74.4556 N.am      10 UNK        -0.7319 
     21 O         -69.6901   27.4141  -73.1209 O.2       10 UNK        -0.5018 
     22 N         -72.0863   29.8114  -74.1017 N.am      10 UNK        -0.4509 
     23 C         -71.6785   31.0187  -74.5189 C.2       10 UNK         0.4899 
     24 O         -70.7714   31.6558  -73.9820 O.2       10 UNK        -0.4839 
     25 CA        -72.3677   31.6330  -75.7561 C.3       9 UNK         0.0222 
     26 CB        -71.3863   31.6951  -76.9392 C.3       9 UNK        -0.1966 
     27 N         -73.5614   30.8995  -76.1774 N.am      9 UNK        -0.4218 
     28 C         -74.7761   31.0087  -75.6234 C.2       9 UNK         0.5020 
     29 O         -75.0707   31.8663  -74.7908 O.2       9 UNK        -0.5274 
     30 CA        -75.8425   29.9769  -76.0490 C.3       8 UNK         0.0270 
     31 CB        -76.9948   30.6574  -76.8065 C.3       8 UNK        -0.1976 
     32 N         -75.3283   28.8634  -76.8588 N.am      8 UNK        -0.4313 
     33 C         -74.4936   27.9141  -76.4168 C.2       8 UNK         0.5041 
     34 O         -74.0042   27.9010  -75.2849 O.2       8 UNK        -0.5577 
     35 CA        -74.0852   26.8335  -77.4174 C.3       7 UNK         0.0284 
     36 CB        -72.6658   27.0799  -77.9591 C.3       7 UNK        -0.1958 
     37 N         -74.1642   25.5453  -76.7399 N.am      7 UNK        -0.4454 
     38 C         -74.3637   24.3663  -77.3341 C.2       7 UNK         0.5089 
     39 O         -74.4061   24.2244  -78.5567 O.2       7 UNK        -0.5125 
     40 CA        -74.5735   23.1336  -76.4333 C.3       6 UNK         0.0408 
     41 CB        -73.2233   22.4873  -76.0664 C.3       6 UNK        -0.1791 
     42 N         -75.4143   23.3455  -75.2406 N.am      6 UNK        -0.4762 
     43 C         -75.1477   24.0667  -74.1420 C.2       6 UNK         0.5007 
     44 O         -74.1460   24.7740  -74.0292 O.2       6 UNK        -0.5032 
     45 CA        -76.1499   23.9612  -72.9752 C.3       5 UNK         0.0783 
     46 C46       -75.9374   25.0640  -71.9049 C.3       11 UNK        -0.0857 
     47 S47       -76.9228   24.7765  -70.3935 S.3       11 UNK        -0.2512 
     48 C48       -76.4296   26.1937  -69.3594 C.3       11 UNK         0.0225 
     49 N         -77.5388   23.9215  -73.4579 N.am      5 UNK        -0.4615 
     50 C         -78.4168   22.9618  -73.1327 C.2       4 UNK         0.5053 
     51 O         -78.1090   21.9117  -72.5680 O.2       4 UNK        -0.5105 
     52 CA        -79.8912   23.2146  -73.4766 C.3       4 UNK         0.0263 
     53 CB        -80.4728   24.3469  -72.6114 C.3       4 UNK        -0.1981 
     54 N         -80.0559   23.5372  -74.8914 N.am      4 UNK        -0.4224 
     55 C         -80.3512   22.6401  -75.8446 C.2       3 UNK         0.4895 
     56 O         -80.5575   21.4469  -75.6199 O.2       3 UNK        -0.5091 
     57 CA        -80.4400   23.1431  -77.2987 C.3       3 UNK         0.0250 
     58 CB        -81.9051   23.2657  -77.7463 C.3       3 UNK        -0.1996 
     59 N         -79.7534   24.4205  -77.5072 N.am      3 UNK        -0.4254 
     60 C         -78.4184   24.5442  -77.5252 C.2       2 UNK         0.5004 
     61 O         -77.6515   23.5859  -77.4557 O.2       2 UNK        -0.5226 
     62 CA        -77.8350   25.9661  -77.5901 C.3       2 UNK         0.0269 
     63 CB        -77.5085   26.3415  -79.0441 C.3       2 UNK        -0.1926 
     64 N         -78.7070   26.9914  -77.0136 N.am      2 UNK        -0.4687 
     65 C         -79.0908   27.0468  -75.7302 C.2       1 UNK         0.5165 
     66 O         -78.7087   26.2470  -74.8725 O.2       1 UNK        -0.5079 
     67 H67       -84.0124   27.0839  -75.1462 H         1 UNK         0.0900 
     68 H68       -83.5136   25.4284  -75.5067 H         1 UNK         0.0900 
     69 H69       -84.1890   26.4493  -76.7810 H         1 UNK         0.0900 
     70 H70       -81.9215   27.7268  -74.4020 H         1 UNK         0.2959 
     71 H71       -80.1280   28.8434  -76.2204 H         1 UNK         0.1079 
     72 H72       -78.6613   29.0561  -74.0176 H         1 UNK         0.0837 
     73 H73       -80.1092   29.9862  -74.2446 H         1 UNK         0.0837 
     74 H74       -79.7685   30.4998  -71.7082 H         1 UNK         0.0685 
     75 H75       -80.2903   29.4400  -70.4209 H         1 UNK         0.0685 
     76 H76       -78.8369   27.3007  -69.9759 H         1 UNK         0.1434 
     77 H77       -74.6314   27.9798  -70.3104 H         1 UNK         0.1329 
     78 H78       -77.4005   30.7577  -72.0620 H         1 UNK         0.1335 
     79 H79       -74.6697   30.1620  -72.8503 H         1 UNK         0.0680 
     80 H80       -75.0366   31.4124  -71.6871 H         1 UNK         0.0680 
     81 H81       -73.3321   28.1178  -72.3310 H         1 UNK         0.1032 
     82 H82       -72.0429   28.0243  -71.1604 H         1 UNK         0.1032 
     83 H83       -70.6830   29.6281  -72.5382 H         1 UNK         0.0461 
     84 H84       -70.9846   26.1795  -74.7938 H         1 UNK         0.3453 
     85 H85       -72.3598   27.2659  -74.7543 H         1 UNK         0.3453 
     86 H86       -72.8234   29.3300  -74.6063 H         1 UNK         0.2984 
     87 H87       -72.6544   32.6545  -75.4976 H         1 UNK         0.0554 
     88 H88       -71.8399   32.1729  -77.8078 H         1 UNK         0.0847 
     89 H89       -71.0488   30.7018  -77.2383 H         1 UNK         0.0847 
     90 H90       -70.4990   32.2752  -76.6815 H         1 UNK         0.0847 
     91 H91       -73.4253   30.1746  -76.8654 H         1 UNK         0.3141 
     92 H92       -76.2480   29.5514  -75.1281 H         1 UNK         0.0743 
     93 H93       -77.4406   31.4529  -76.2073 H         1 UNK         0.0784 
     94 H94       -76.6541   31.1060  -77.7405 H         1 UNK         0.0784 
     95 H95       -77.7898   29.9505  -77.0426 H         1 UNK         0.0784 
     96 H96       -75.6461   28.8280  -77.8169 H         1 UNK         0.3213 
     97 H97       -74.7850   26.8391  -78.2543 H         1 UNK         0.0855 
     98 H98       -72.3850   26.3225  -78.6910 H         1 UNK         0.0814 
     99 H99       -71.9184   27.0664  -77.1663 H         1 UNK         0.0814 
    100 H100      -72.5976   28.0481  -78.4564 H         1 UNK         0.0814 
    101 H101      -74.1298   25.5733  -75.7209 H         1 UNK         0.3105 
    102 H102      -75.1205   22.4073  -77.0367 H         1 UNK         0.0547 
    103 H103      -72.6592   22.2324  -76.9645 H         1 UNK         0.0837 
    104 H104      -72.5973   23.1543  -75.4730 H         1 UNK         0.0837 
    105 H105      -73.3640   21.5664  -75.5009 H         1 UNK         0.0837 
    106 H106      -76.3046   22.8658  -75.2672 H         1 UNK         0.3020 
    107 H107      -75.8977   23.0110  -72.4993 H         1 UNK         0.1245 
    108 H108      -76.1930   26.0390  -72.3241 H         1 UNK         0.0781 
    109 H109      -74.8904   25.1213  -71.6010 H         1 UNK         0.0781 
    110 H110      -75.3743   26.0971  -69.0993 H         1 UNK         0.0836 
    111 H111      -76.9827   26.1608  -68.4198 H         1 UNK         0.0836 
    112 H112      -77.8736   24.7574  -73.9305 H         1 UNK         0.3022 
    113 H113      -80.4497   22.3064  -73.2392 H         1 UNK         0.0747 
    114 H114      -81.5291   24.5083  -72.8266 H         1 UNK         0.0793 
    115 H115      -80.3900   24.1054  -71.5509 H         1 UNK         0.0793 
    116 H116      -79.9537   25.2929  -72.7651 H         1 UNK         0.0793 
    117 H117      -79.8419   24.4897  -75.1604 H         1 UNK         0.3047 
    118 H118      -79.9603   22.3918  -77.9302 H         1 UNK         0.0822 
    119 H119      -81.9782   23.5946  -78.7831 H         1 UNK         0.0807 
    120 H120      -82.4590   23.9725  -77.1306 H         1 UNK         0.0807 
    121 H121      -82.4155   22.3043  -77.6747 H         1 UNK         0.0807 
    122 H122      -80.3319   25.2548  -77.5673 H         1 UNK         0.2946 
    123 H123      -76.9140   25.9581  -77.0068 H         1 UNK         0.1144 
    124 H124      -77.0610   27.3322  -79.1144 H         1 UNK         0.0793 
    125 H125      -78.4012   26.3344  -79.6710 H         1 UNK         0.0793 
    126 H126      -76.8011   25.6331  -79.4784 H         1 UNK         0.0793 
    127 H127      -79.1302   27.6345  -77.6682 H         1 UNK         0.2896 
@<TRIPOS>BOND
     1    1    2 1    
     2    1   67 1    
     3    1   68 1    
     4    1   69 1    
     5    2    3 2    
     6    2    4 am   BACKBONE|DICT|INTERRES
     7    4    5 1    
     8    4   70 1    
     9    5    6 1    
    10    5   65 1    
    11    5   71 1    
    12    6    7 1    
    13    6   72 1    
    14    6   73 1    
    15    7    8 1    
    16    8    9 1    
    17    8   74 1    
    18    8   75 1    
    19    9   10 ar   
    20    9   14 ar   
    21   10   11 ar   
    22   10   76 1    
    23   11   12 ar   
    24   11   48 1    
    25   12   13 ar   
    26   12   77 1    
    27   13   14 ar   
    28   13   15 1    
    29   14   78 1    
    30   15   16 1    
    31   15   79 1    
    32   15   80 1    
    33   16   17 1    
    34   17   18 1    
    35   17   81 1    
    36   17   82 1    
    37   18   19 1    
    38   18   22 1    
    39   18   83 1    
    40   19   20 am   BACKBONE|DICT|INTERRES
    41   19   21 2    
    42   20   84 1    
    43   20   85 1    
    44   22   23 am   BACKBONE|DICT|INTERRES
    45   22   86 1    
    46   23   24 2    
    47   23   25 1    
    48   25   26 1    
    49   25   27 1    
    50   25   87 1    
    51   26   88 1    
    52   26   89 1    
    53   26   90 1    
    54   27   28 am   BACKBONE|DICT|INTERRES
    55   27   91 1    
    56   28   29 2    
    57   28   30 1    
    58   30   31 1    
    59   30   32 1    
    60   30   92 1    
    61   31   93 1    
    62   31   94 1    
    63   31   95 1    
    64   32   33 am   BACKBONE|DICT|INTERRES
    65   32   96 1    
    66   33   34 2    
    67   33   35 1    
    68   35   36 1    
    69   35   37 1    
    70   35   97 1    
    71   36   98 1    
    72   36   99 1    
    73   36  100 1    
    74   37   38 am   BACKBONE|DICT|INTERRES
    75   37  101 1    
    76   38   39 2    
    77   38   40 1    
    78   40   41 1    
    79   40   42 1    
    80   40  102 1    
    81   41  103 1    
    82   41  104 1    
    83   41  105 1    
    84   42   43 am   BACKBONE|DICT|INTERRES
    85   42  106 1    
    86   43   44 2    
    87   43   45 1    
    88   45   46 1    
    89   45   49 1    
    90   45  107 1    
    91   46   47 1    
    92   46  108 1    
    93   46  109 1    
    94   47   48 1    
    95   48  110 1    
    96   48  111 1    
    97   49   50 am   BACKBONE|DICT|INTERRES
    98   49  112 1    
    99   50   51 2    
   100   50   52 1    
   101   52   53 1    
   102   52   54 1    
   103   52  113 1    
   104   53  114 1    
   105   53  115 1    
   106   53  116 1    
   107   54   55 am   BACKBONE|DICT|INTERRES
   108   54  117 1    
   109   55   56 2    
   110   55   57 1    
   111   57   58 1    
   112   57   59 1    
   113   57  118 1    
   114   58  119 1    
   115   58  120 1    
   116   58  121 1    
   117   59   60 am   BACKBONE|DICT|INTERRES
   118   59  122 1    
   119   60   61 2    
   120   60   62 1    
   121   62   63 1    
   122   62   64 1    
   123   62  123 1    
   124   63  124 1    
   125   63  125 1    
   126   63  126 1    
   127   64   65 am   BACKBONE|DICT|INTERRES
   128   64  127 1    
   129   65   66 2    
@<TRIPOS>SUBSTRUCTURE
     1 UNK         1 GROUP             0       ****    0 ROOT    
