@<TRIPOS>MOLECULE
3R135
127   129    1
SMALL
USER_CHARGES


@<TRIPOS>ATOM
      1 CA        -83.6652   24.6579  -71.0737 C.3       0 UNK        -0.1998 
      2 C         -82.8397   25.6224  -71.9115 C.2       0 UNK         0.4909 
      3 O         -81.7271   25.2797  -72.3105 O.2       0 UNK        -0.5240 
      4 N         -83.3892   26.8130  -72.1930 N.am      1 UNK        -0.4739 
      5 CA        -82.8065   27.9481  -72.9342 C.3       1 UNK         0.0864 
      6 C6        -81.4859   28.4930  -72.3327 C.3       11 UNK        -0.0881 
      7 S7        -81.6050   28.9648  -70.5721 S.3       11 UNK        -0.2682 
      8 C8        -80.1533   30.0590  -70.3868 C.3       11 UNK         0.0289 
      9 C9        -78.9089   29.4852  -71.0530 C.ar      11 UNK        -0.0687 
     10 C10       -78.3341   28.3045  -70.5737 C.ar      11 UNK        -0.0823 
     11 C11       -77.2552   27.7216  -71.2431 C.ar      11 UNK        -0.0830 
     12 C12       -76.7222   28.3495  -72.3737 C.ar      11 UNK        -0.1021 
     13 C13       -77.2859   29.5319  -72.8597 C.ar      11 UNK        -0.0753 
     14 C14       -78.3744   30.0989  -72.1908 C.ar      11 UNK        -0.0933 
     15 C15       -76.7659   30.1650  -74.1418 C.3       11 UNK         0.0166 
     16 S16       -75.6573   31.5686  -73.8112 S.3       11 UNK        -0.2615 
     17 C17       -74.0909   30.7295  -73.3900 C.3       11 UNK        -0.0865 
     18 CA        -73.0601   30.7936  -74.5487 C.3       10 UNK         0.0862 
     19 C         -71.6446   30.3409  -74.0795 C.2       10 UNK         0.5551 
     20 N         -70.9991   29.3653  -74.7080 N.am      10 UNK        -0.7319 
     21 O         -71.1117   30.9002  -73.1242 O.2       10 UNK        -0.5018 
     22 N         -73.5508   30.0974  -75.7495 N.am      10 UNK        -0.4509 
     23 C         -73.2044   30.3985  -77.0068 C.2       10 UNK         0.4899 
     24 O         -72.4926   31.3583  -77.3082 O.2       10 UNK        -0.4839 
     25 CA        -73.7422   29.4596  -78.1095 C.3       9 UNK         0.0222 
     26 CB        -72.9404   29.5694  -79.4233 C.3       9 UNK        -0.1966 
     27 N         -73.8489   28.0511  -77.6993 N.am      9 UNK        -0.4218 
     28 C         -72.8784   27.2721  -77.2013 C.2       9 UNK         0.5020 
     29 O         -71.7341   27.6687  -76.9695 O.2       9 UNK        -0.5274 
     30 CA        -73.2852   25.8196  -76.9022 C.3       8 UNK         0.0270 
     31 CB        -73.2448   24.9426  -78.1701 C.3       8 UNK        -0.1976 
     32 N         -72.5237   25.2391  -75.7917 N.am      8 UNK        -0.4313 
     33 C         -71.2479   24.8210  -75.7594 C.2       8 UNK         0.5041 
     34 O         -70.5112   24.7442  -76.7442 O.2       8 UNK        -0.5577 
     35 CA        -70.6731   24.4208  -74.3850 C.3       7 UNK         0.0284 
     36 CB        -69.6130   25.4390  -73.9303 C.3       7 UNK        -0.1958 
     37 N         -71.6855   24.2988  -73.3326 N.am      7 UNK        -0.4454 
     38 C         -72.5504   23.2838  -73.2118 C.2       7 UNK         0.5089 
     39 O         -72.5557   22.2984  -73.9506 O.2       7 UNK        -0.5125 
     40 CA        -73.5993   23.3816  -72.0868 C.3       6 UNK         0.0408 
     41 CB        -73.3505   24.5289  -71.0806 C.3       6 UNK        -0.1791 
     42 N         -74.9632   23.4508  -72.6234 N.am      6 UNK        -0.4762 
     43 C         -75.4612   24.3633  -73.4739 C.2       6 UNK         0.5007 
     44 O         -74.8171   25.3202  -73.9144 O.2       6 UNK        -0.5032 
     45 CA        -76.9491   24.1908  -73.8613 C.3       5 UNK         0.0783 
     46 C46       -77.8869   25.1209  -73.0517 C.3       11 UNK        -0.0857 
     47 S47       -77.7788   24.9830  -71.2288 S.3       11 UNK        -0.2512 
     48 C48       -76.6968   26.3856  -70.7774 C.3       11 UNK         0.0225 
     49 N         -77.1650   24.3933  -75.2990 N.am      5 UNK        -0.4615 
     50 C         -76.6242   23.6541  -76.2786 C.2       4 UNK         0.5053 
     51 O         -75.8818   22.6952  -76.0676 O.2       4 UNK        -0.5105 
     52 CA        -76.9893   23.9945  -77.7388 C.3       4 UNK         0.0263 
     53 CB        -77.6510   22.7877  -78.4272 C.3       4 UNK        -0.1981 
     54 N         -77.8796   25.1487  -77.8760 N.am      4 UNK        -0.4224 
     55 C         -77.4961   26.4319  -77.9089 C.2       3 UNK         0.4895 
     56 O         -76.3231   26.7978  -77.8576 O.2       3 UNK        -0.5091 
     57 CA        -78.6042   27.4973  -78.0149 C.3       3 UNK         0.0250 
     58 CB        -78.6646   28.0639  -79.4425 C.3       3 UNK        -0.1996 
     59 N         -79.9389   27.0240  -77.6232 N.am      3 UNK        -0.4254 
     60 C         -80.2716   26.6537  -76.3797 C.2       2 UNK         0.5004 
     61 O         -79.4728   26.6365  -75.4410 O.2       2 UNK        -0.5226 
     62 CA        -81.7085   26.1539  -76.1666 C.3       2 UNK         0.0269 
     63 CB        -81.7714   24.6274  -76.3392 C.3       2 UNK        -0.1926 
     64 N         -82.1604   26.4945  -74.8200 N.am      2 UNK        -0.4687 
     65 C         -82.6157   27.6947  -74.4462 C.2       1 UNK         0.5165 
     66 O         -82.8722   28.5978  -75.2444 O.2       1 UNK        -0.5079 
     67 H67       -83.8495   23.7400  -71.6312 H         1 UNK         0.0900 
     68 H68       -83.1268   24.4008  -70.1620 H         1 UNK         0.0900 
     69 H69       -84.6280   25.0827  -70.7903 H         1 UNK         0.0900 
     70 H70       -84.3218   26.9916  -71.8466 H         1 UNK         0.2959 
     71 H71       -83.5467   28.7466  -72.8594 H         1 UNK         0.1079 
     72 H72       -80.6858   27.7566  -72.4368 H         1 UNK         0.0837 
     73 H73       -81.1611   29.3719  -72.8935 H         1 UNK         0.0837 
     74 H74       -80.3968   31.0375  -70.8038 H         1 UNK         0.0685 
     75 H75       -79.9577   30.2168  -69.3254 H         1 UNK         0.0685 
     76 H76       -78.7627   27.8108  -69.7121 H         1 UNK         0.1434 
     77 H77       -75.8992   27.8887  -72.9034 H         1 UNK         0.1329 
     78 H78       -78.8241   31.0031  -72.5778 H         1 UNK         0.1335 
     79 H79       -77.6102   30.5210  -74.7342 H         1 UNK         0.0680 
     80 H80       -76.2575   29.4251  -74.7617 H         1 UNK         0.0680 
     81 H81       -73.6975   31.2253  -72.5004 H         1 UNK         0.1032 
     82 H82       -74.2760   29.6964  -73.0947 H         1 UNK         0.1032 
     83 H83       -72.9438   31.8483  -74.8059 H         1 UNK         0.0461 
     84 H84       -70.0802   29.1076  -74.3873 H         1 UNK         0.3453 
     85 H85       -71.3946   28.8973  -75.5182 H         1 UNK         0.3453 
     86 H86       -74.1181   29.2791  -75.5924 H         1 UNK         0.2984 
     87 H87       -74.7609   29.7908  -78.3158 H         1 UNK         0.0554 
     88 H88       -72.9578   30.5883  -79.8120 H         1 UNK         0.0847 
     89 H89       -73.3557   28.9233  -80.1967 H         1 UNK         0.0847 
     90 H90       -71.8953   29.2924  -79.2805 H         1 UNK         0.0847 
     91 H91       -74.7715   27.6271  -77.8190 H         1 UNK         0.3141 
     92 H92       -74.3149   25.8366  -76.5450 H         1 UNK         0.0743 
     93 H93       -72.2605   24.9442  -78.6385 H         1 UNK         0.0784 
     94 H94       -73.5118   23.9096  -77.9468 H         1 UNK         0.0784 
     95 H95       -73.9512   25.3093  -78.9158 H         1 UNK         0.0784 
     96 H96       -73.0329   25.2402  -74.9133 H         1 UNK         0.3213 
     97 H97       -70.1857   23.4511  -74.5083 H         1 UNK         0.0855 
     98 H98       -70.0414   26.4328  -73.7942 H         1 UNK         0.0814 
     99 H99       -68.8157   25.5287  -74.6696 H         1 UNK         0.0814 
    100 H100      -69.1480   25.1389  -72.9911 H         1 UNK         0.0814 
    101 H101      -71.7601   25.0697  -72.6847 H         1 UNK         0.3105 
    102 H102      -73.5348   22.4442  -71.5324 H         1 UNK         0.0547 
    103 H103      -72.3663   24.4416  -70.6182 H         1 UNK         0.0837 
    104 H104      -73.4150   25.5134  -71.5448 H         1 UNK         0.0837 
    105 H105      -74.0800   24.4992  -70.2712 H         1 UNK         0.0837 
    106 H106      -75.5695   22.6965  -72.3321 H         1 UNK         0.3020 
    107 H107      -77.2351   23.1590  -73.6461 H         1 UNK         0.1245 
    108 H108      -78.9222   24.8966  -73.3149 H         1 UNK         0.0781 
    109 H109      -77.7430   26.1533  -73.3629 H         1 UNK         0.0781 
    110 H110      -75.7033   26.2263  -71.1945 H         1 UNK         0.0836 
    111 H111      -76.5711   26.4012  -69.6939 H         1 UNK         0.0836 
    112 H112      -77.7624   25.1722  -75.5476 H         1 UNK         0.3022 
    113 H113      -76.0561   24.2080  -78.2618 H         1 UNK         0.0747 
    114 H114      -77.8686   22.9982  -79.4745 H         1 UNK         0.0793 
    115 H115      -76.9965   21.9151  -78.4062 H         1 UNK         0.0793 
    116 H116      -78.5849   22.5060  -77.9389 H         1 UNK         0.0793 
    117 H117      -78.8678   24.9510  -77.9282 H         1 UNK         0.3047 
    118 H118      -78.3283   28.3088  -77.3377 H         1 UNK         0.0822 
    119 H119      -79.3764   28.8865  -79.5141 H         1 UNK         0.0807 
    120 H120      -78.9546   27.3026  -80.1678 H         1 UNK         0.0807 
    121 H121      -77.6927   28.4530  -79.7501 H         1 UNK         0.0807 
    122 H122      -80.6404   26.9968  -78.3499 H         1 UNK         0.2946 
    123 H123      -82.3688   26.6249  -76.8987 H         1 UNK         0.1144 
    124 H124      -82.7833   24.2534  -76.1824 H         1 UNK         0.0793 
    125 H125      -81.1135   24.1147  -75.6355 H         1 UNK         0.0793 
    126 H126      -81.4705   24.3316  -77.3450 H         1 UNK         0.0793 
    127 H127      -81.9058   25.8534  -74.0720 H         1 UNK         0.2896 
@<TRIPOS>BOND
     1    1    2 1    
     2    1   67 1    
     3    1   68 1    
     4    1   69 1    
     5    2    3 2    
     6    2    4 am   BACKBONE|DICT|INTERRES
     7    4    5 1    
     8    4   70 1    
     9    5    6 1    
    10    5   65 1    
    11    5   71 1    
    12    6    7 1    
    13    6   72 1    
    14    6   73 1    
    15    7    8 1    
    16    8    9 1    
    17    8   74 1    
    18    8   75 1    
    19    9   10 ar   
    20    9   14 ar   
    21   10   11 ar   
    22   10   76 1    
    23   11   12 ar   
    24   11   48 1    
    25   12   13 ar   
    26   12   77 1    
    27   13   14 ar   
    28   13   15 1    
    29   14   78 1    
    30   15   16 1    
    31   15   79 1    
    32   15   80 1    
    33   16   17 1    
    34   17   18 1    
    35   17   81 1    
    36   17   82 1    
    37   18   19 1    
    38   18   22 1    
    39   18   83 1    
    40   19   20 am   BACKBONE|DICT|INTERRES
    41   19   21 2    
    42   20   84 1    
    43   20   85 1    
    44   22   23 am   BACKBONE|DICT|INTERRES
    45   22   86 1    
    46   23   24 2    
    47   23   25 1    
    48   25   26 1    
    49   25   27 1    
    50   25   87 1    
    51   26   88 1    
    52   26   89 1    
    53   26   90 1    
    54   27   28 am   BACKBONE|DICT|INTERRES
    55   27   91 1    
    56   28   29 2    
    57   28   30 1    
    58   30   31 1    
    59   30   32 1    
    60   30   92 1    
    61   31   93 1    
    62   31   94 1    
    63   31   95 1    
    64   32   33 am   BACKBONE|DICT|INTERRES
    65   32   96 1    
    66   33   34 2    
    67   33   35 1    
    68   35   36 1    
    69   35   37 1    
    70   35   97 1    
    71   36   98 1    
    72   36   99 1    
    73   36  100 1    
    74   37   38 am   BACKBONE|DICT|INTERRES
    75   37  101 1    
    76   38   39 2    
    77   38   40 1    
    78   40   41 1    
    79   40   42 1    
    80   40  102 1    
    81   41  103 1    
    82   41  104 1    
    83   41  105 1    
    84   42   43 am   BACKBONE|DICT|INTERRES
    85   42  106 1    
    86   43   44 2    
    87   43   45 1    
    88   45   46 1    
    89   45   49 1    
    90   45  107 1    
    91   46   47 1    
    92   46  108 1    
    93   46  109 1    
    94   47   48 1    
    95   48  110 1    
    96   48  111 1    
    97   49   50 am   BACKBONE|DICT|INTERRES
    98   49  112 1    
    99   50   51 2    
   100   50   52 1    
   101   52   53 1    
   102   52   54 1    
   103   52  113 1    
   104   53  114 1    
   105   53  115 1    
   106   53  116 1    
   107   54   55 am   BACKBONE|DICT|INTERRES
   108   54  117 1    
   109   55   56 2    
   110   55   57 1    
   111   57   58 1    
   112   57   59 1    
   113   57  118 1    
   114   58  119 1    
   115   58  120 1    
   116   58  121 1    
   117   59   60 am   BACKBONE|DICT|INTERRES
   118   59  122 1    
   119   60   61 2    
   120   60   62 1    
   121   62   63 1    
   122   62   64 1    
   123   62  123 1    
   124   63  124 1    
   125   63  125 1    
   126   63  126 1    
   127   64   65 am   BACKBONE|DICT|INTERRES
   128   64  127 1    
   129   65   66 2    
@<TRIPOS>SUBSTRUCTURE
     1 UNK         1 GROUP             0       ****    0 ROOT    
