@<TRIPOS>MOLECULE
3R135
127   129    1
SMALL
USER_CHARGES


@<TRIPOS>ATOM
      1 CA        -83.4793   30.2305  -75.9456 C.3       0 UNK        -0.1998 
      2 C         -82.7874   29.7944  -74.6631 C.2       0 UNK         0.4909 
      3 O         -82.2684   30.6374  -73.9318 O.2       0 UNK        -0.5240 
      4 N         -82.7810   28.4871  -74.3858 N.am      1 UNK        -0.4739 
      5 CA        -82.1175   27.8551  -73.2483 C.3       1 UNK         0.0864 
      6 C6        -82.8503   28.1362  -71.9078 C.3       11 UNK        -0.0881 
      7 S7        -81.9220   27.6385  -70.4146 S.3       11 UNK        -0.2682 
      8 C8        -80.9022   29.1083  -70.0659 C.3       11 UNK         0.0289 
      9 C9        -79.5881   29.0749  -70.8331 C.ar      11 UNK        -0.0687 
     10 C10       -79.3948   29.8937  -71.9510 C.ar      11 UNK        -0.0823 
     11 C11       -78.1951   29.8416  -72.6671 C.ar      11 UNK        -0.0830 
     12 C12       -77.1755   28.9872  -72.2408 C.ar      11 UNK        -0.1021 
     13 C13       -77.3516   28.1752  -71.1193 C.ar      11 UNK        -0.0753 
     14 C14       -78.5596   28.2213  -70.4180 C.ar      11 UNK        -0.0933 
     15 C15       -76.2343   27.2412  -70.6900 C.3       11 UNK         0.0166 
     16 S16       -75.0185   28.1052  -69.6494 S.3       11 UNK        -0.2615 
     17 C17       -73.4706   27.3145  -70.2068 C.3       11 UNK        -0.0865 
     18 CA        -72.8289   28.0721  -71.4022 C.3       10 UNK         0.0862 
     19 C         -71.9728   29.2822  -70.9322 C.2       10 UNK         0.5551 
     20 N         -72.5827   30.4464  -70.7598 N.am      10 UNK        -0.7319 
     21 O         -70.7731   29.1632  -70.6885 O.2       10 UNK        -0.5018 
     22 N         -72.0806   27.1503  -72.2691 N.am      10 UNK        -0.4509 
     23 C         -71.6670   27.4392  -73.5100 C.2       10 UNK         0.4899 
     24 O         -71.8863   28.5159  -74.0713 O.2       10 UNK        -0.4839 
     25 CA        -70.8624   26.3495  -74.2407 C.3       9 UNK         0.0222 
     26 CB        -71.3846   24.9205  -73.9809 C.3       9 UNK        -0.1966 
     27 N         -70.8808   26.6141  -75.6771 N.am      9 UNK        -0.4218 
     28 C         -69.9028   26.3389  -76.5445 C.2       9 UNK         0.5020 
     29 O         -68.8358   25.8084  -76.2277 O.2       9 UNK        -0.5274 
     30 CA        -70.1889   26.6822  -78.0211 C.3       8 UNK         0.0270 
     31 CB        -68.9426   26.5415  -78.9160 C.3       8 UNK        -0.1976 
     32 N         -71.2594   25.8377  -78.5598 N.am      8 UNK        -0.4313 
     33 C         -72.5647   26.0074  -78.3157 C.2       8 UNK         0.5041 
     34 O         -73.0095   26.9485  -77.6544 O.2       8 UNK        -0.5577 
     35 CA        -73.5053   24.9166  -78.8598 C.3       7 UNK         0.0284 
     36 CB        -73.3348   23.6104  -78.0644 C.3       7 UNK        -0.1958 
     37 N         -74.9108   25.3195  -78.7954 N.am      7 UNK        -0.4454 
     38 C         -75.4939   26.2085  -79.6096 C.2       7 UNK         0.5089 
     39 O         -74.9315   26.7345  -80.5714 O.2       7 UNK        -0.5125 
     40 CA        -76.9567   26.5659  -79.3007 C.3       6 UNK         0.0408 
     41 CB        -77.9091   25.4922  -79.8517 C.3       6 UNK        -0.1791 
     42 N         -77.1853   26.7323  -77.8642 N.am      6 UNK        -0.4762 
     43 C         -76.9036   27.8482  -77.1734 C.2       6 UNK         0.5007 
     44 O         -76.4560   28.8737  -77.6883 O.2       6 UNK        -0.5032 
     45 CA        -77.1704   27.8139  -75.6538 C.3       5 UNK         0.0783 
     46 C46       -78.6201   28.2494  -75.3174 C.3       11 UNK        -0.0857 
     47 S47       -78.9080   30.0522  -75.3656 S.3       11 UNK        -0.2512 
     48 C48       -77.9973   30.6884  -73.9158 C.3       11 UNK         0.0225 
     49 N         -76.8864   26.4865  -75.1005 N.am      5 UNK        -0.4615 
     50 C         -75.6596   26.0252  -74.8189 C.2       4 UNK         0.5053 
     51 O         -74.6538   26.7286  -74.8532 O.2       4 UNK        -0.5105 
     52 CA        -75.5044   24.5379  -74.4327 C.3       4 UNK         0.0263 
     53 CB        -75.1685   24.3864  -72.9401 C.3       4 UNK        -0.1981 
     54 N         -76.6658   23.7015  -74.7403 N.am      4 UNK        -0.4224 
     55 C         -77.1366   23.4356  -75.9667 C.2       3 UNK         0.4895 
     56 O         -76.5864   23.8039  -77.0040 O.2       3 UNK        -0.5091 
     57 CA        -78.4955   22.7103  -76.0421 C.3       3 UNK         0.0250 
     58 CB        -78.2867   21.1939  -76.1753 C.3       3 UNK        -0.1996 
     59 N         -79.3836   22.9883  -74.9006 N.am      3 UNK        -0.4254 
     60 C         -79.7812   24.2146  -74.5277 C.2       2 UNK         0.5004 
     61 O         -79.4611   25.2351  -75.1404 O.2       2 UNK        -0.5226 
     62 CA        -80.5917   24.3207  -73.2219 C.3       2 UNK         0.0269 
     63 CB        -79.7635   23.8259  -72.0214 C.3       2 UNK        -0.1926 
     64 N         -80.9936   25.7028  -72.9510 N.am      2 UNK        -0.4687 
     65 C         -81.9809   26.3563  -73.5730 C.2       1 UNK         0.5165 
     66 O         -82.7567   25.8274  -74.3760 O.2       1 UNK        -0.5079 
     67 H67       -82.7670   30.7287  -76.6029 H         1 UNK         0.0900 
     68 H68       -84.2829   30.9308  -75.7193 H         1 UNK         0.0900 
     69 H69       -83.9067   29.3860  -76.4860 H         1 UNK         0.0900 
     70 H70       -83.2049   27.8192  -75.0197 H         1 UNK         0.2959 
     71 H71       -81.1092   28.2656  -73.2031 H         1 UNK         0.1079 
     72 H72       -83.8167   27.6288  -71.8949 H         1 UNK         0.0837 
     73 H73       -83.0818   29.1979  -71.8165 H         1 UNK         0.0837 
     74 H74       -80.6877   29.1368  -68.9966 H         1 UNK         0.0685 
     75 H75       -81.4631   30.0180  -70.2854 H         1 UNK         0.0685 
     76 H76       -80.1867   30.5521  -72.2827 H         1 UNK         0.1434 
     77 H77       -76.2430   28.9427  -72.7868 H         1 UNK         0.1329 
     78 H78       -78.7033   27.5895  -69.5520 H         1 UNK         0.1335 
     79 H79       -76.6297   26.3774  -70.1534 H         1 UNK         0.0680 
     80 H80       -75.7438   26.8568  -71.5841 H         1 UNK         0.0680 
     81 H81       -73.6986   26.2821  -70.4761 H         1 UNK         0.1032 
     82 H82       -72.7800   27.2445  -69.3638 H         1 UNK         0.1032 
     83 H83       -73.6360   28.4638  -72.0260 H         1 UNK         0.0461 
     84 H84       -72.0491   31.2403  -70.4423 H         1 UNK         0.3453 
     85 H85       -73.5738   30.5378  -70.9200 H         1 UNK         0.3453 
     86 H86       -71.8085   26.2698  -71.8597 H         1 UNK         0.2984 
     87 H87       -69.8360   26.4226  -73.8756 H         1 UNK         0.0554 
     88 H88       -70.8122   24.1832  -74.5441 H         1 UNK         0.0847 
     89 H89       -72.4288   24.8212  -74.2759 H         1 UNK         0.0847 
     90 H90       -71.3053   24.6414  -72.9302 H         1 UNK         0.0847 
     91 H91       -71.7316   27.0463  -76.0324 H         1 UNK         0.3141 
     92 H92       -70.5065   27.7267  -78.0589 H         1 UNK         0.0743 
     93 H93       -68.1290   27.1707  -78.5523 H         1 UNK         0.0784 
     94 H94       -68.5743   25.5151  -78.9421 H         1 UNK         0.0784 
     95 H95       -69.1536   26.8486  -79.9405 H         1 UNK         0.0784 
     96 H96       -70.9657   25.0232  -79.0802 H         1 UNK         0.3213 
     97 H97       -73.2482   24.7303  -79.9048 H         1 UNK         0.0855 
     98 H98       -73.5228   23.7611  -77.0016 H         1 UNK         0.0814 
     99 H99       -72.3239   23.2132  -78.1619 H         1 UNK         0.0814 
    100 H100      -74.0189   22.8380  -78.4170 H         1 UNK         0.0814 
    101 H101      -75.4671   24.9137  -78.0473 H         1 UNK         0.3105 
    102 H102      -77.1871   27.5065  -79.8059 H         1 UNK         0.0547 
    103 H103      -77.7741   25.3685  -80.9270 H         1 UNK         0.0837 
    104 H104      -77.7392   24.5192  -79.3893 H         1 UNK         0.0837 
    105 H105      -78.9515   25.7643  -79.6861 H         1 UNK         0.0837 
    106 H106      -77.5030   25.9170  -77.3575 H         1 UNK         0.3020 
    107 H107      -76.4779   28.5212  -75.1938 H         1 UNK         0.1245 
    108 H108      -78.9018   27.8901  -74.3273 H         1 UNK         0.0781 
    109 H109      -79.3347   27.7768  -75.9941 H         1 UNK         0.0781 
    110 H110      -76.9380   30.7585  -74.1673 H         1 UNK         0.0836 
    111 H111      -78.3252   31.7097  -73.7165 H         1 UNK         0.0836 
    112 H112      -77.6883   25.8653  -75.0318 H         1 UNK         0.3022 
    113 H113      -74.6619   24.1529  -75.0082 H         1 UNK         0.0747 
    114 H114      -74.3426   25.0377  -72.6519 H         1 UNK         0.0793 
    115 H115      -74.8671   23.3651  -72.7064 H         1 UNK         0.0793 
    116 H116      -76.0214   24.6344  -72.3082 H         1 UNK         0.0793 
    117 H117      -77.1894   23.3523  -73.9517 H         1 UNK         0.3047 
    118 H118      -78.9996   23.0675  -76.9427 H         1 UNK         0.0822 
    119 H119      -79.2323   20.6747  -76.3325 H         1 UNK         0.0807 
    120 H120      -77.8129   20.7706  -75.2887 H         1 UNK         0.0807 
    121 H121      -77.6473   20.9621  -77.0286 H         1 UNK         0.0807 
    122 H122      -79.6813   22.1913  -74.3558 H         1 UNK         0.2946 
    123 H123      -81.4871   23.7032  -73.3245 H         1 UNK         0.1144 
    124 H124      -79.4979   22.7731  -72.1221 H         1 UNK         0.0793 
    125 H125      -80.3235   23.9221  -71.0907 H         1 UNK         0.0793 
    126 H126      -78.8361   24.3898  -71.9099 H         1 UNK         0.0793 
    127 H127      -80.4154   26.2177  -72.3023 H         1 UNK         0.2896 
@<TRIPOS>BOND
     1    1    2 1    
     2    1   67 1    
     3    1   68 1    
     4    1   69 1    
     5    2    3 2    
     6    2    4 am   BACKBONE|DICT|INTERRES
     7    4    5 1    
     8    4   70 1    
     9    5    6 1    
    10    5   65 1    
    11    5   71 1    
    12    6    7 1    
    13    6   72 1    
    14    6   73 1    
    15    7    8 1    
    16    8    9 1    
    17    8   74 1    
    18    8   75 1    
    19    9   10 ar   
    20    9   14 ar   
    21   10   11 ar   
    22   10   76 1    
    23   11   12 ar   
    24   11   48 1    
    25   12   13 ar   
    26   12   77 1    
    27   13   14 ar   
    28   13   15 1    
    29   14   78 1    
    30   15   16 1    
    31   15   79 1    
    32   15   80 1    
    33   16   17 1    
    34   17   18 1    
    35   17   81 1    
    36   17   82 1    
    37   18   19 1    
    38   18   22 1    
    39   18   83 1    
    40   19   20 am   BACKBONE|DICT|INTERRES
    41   19   21 2    
    42   20   84 1    
    43   20   85 1    
    44   22   23 am   BACKBONE|DICT|INTERRES
    45   22   86 1    
    46   23   24 2    
    47   23   25 1    
    48   25   26 1    
    49   25   27 1    
    50   25   87 1    
    51   26   88 1    
    52   26   89 1    
    53   26   90 1    
    54   27   28 am   BACKBONE|DICT|INTERRES
    55   27   91 1    
    56   28   29 2    
    57   28   30 1    
    58   30   31 1    
    59   30   32 1    
    60   30   92 1    
    61   31   93 1    
    62   31   94 1    
    63   31   95 1    
    64   32   33 am   BACKBONE|DICT|INTERRES
    65   32   96 1    
    66   33   34 2    
    67   33   35 1    
    68   35   36 1    
    69   35   37 1    
    70   35   97 1    
    71   36   98 1    
    72   36   99 1    
    73   36  100 1    
    74   37   38 am   BACKBONE|DICT|INTERRES
    75   37  101 1    
    76   38   39 2    
    77   38   40 1    
    78   40   41 1    
    79   40   42 1    
    80   40  102 1    
    81   41  103 1    
    82   41  104 1    
    83   41  105 1    
    84   42   43 am   BACKBONE|DICT|INTERRES
    85   42  106 1    
    86   43   44 2    
    87   43   45 1    
    88   45   46 1    
    89   45   49 1    
    90   45  107 1    
    91   46   47 1    
    92   46  108 1    
    93   46  109 1    
    94   47   48 1    
    95   48  110 1    
    96   48  111 1    
    97   49   50 am   BACKBONE|DICT|INTERRES
    98   49  112 1    
    99   50   51 2    
   100   50   52 1    
   101   52   53 1    
   102   52   54 1    
   103   52  113 1    
   104   53  114 1    
   105   53  115 1    
   106   53  116 1    
   107   54   55 am   BACKBONE|DICT|INTERRES
   108   54  117 1    
   109   55   56 2    
   110   55   57 1    
   111   57   58 1    
   112   57   59 1    
   113   57  118 1    
   114   58  119 1    
   115   58  120 1    
   116   58  121 1    
   117   59   60 am   BACKBONE|DICT|INTERRES
   118   59  122 1    
   119   60   61 2    
   120   60   62 1    
   121   62   63 1    
   122   62   64 1    
   123   62  123 1    
   124   63  124 1    
   125   63  125 1    
   126   63  126 1    
   127   64   65 am   BACKBONE|DICT|INTERRES
   128   64  127 1    
   129   65   66 2    
@<TRIPOS>SUBSTRUCTURE
     1 UNK         1 GROUP             0       ****    0 ROOT    
