@<TRIPOS>MOLECULE
3R135
127   129    1
SMALL
USER_CHARGES


@<TRIPOS>ATOM
      1 CA        -86.1389   29.4701  -69.4495 C.3       0 UNK        -0.1998 
      2 C         -85.1061   29.8203  -70.5105 C.2       0 UNK         0.4909 
      3 O         -85.2957   30.7834  -71.2550 O.2       0 UNK        -0.5240 
      4 N         -84.0119   29.0524  -70.5775 N.am      1 UNK        -0.4739 
      5 CA        -82.9480   29.1898  -71.5775 C.3       1 UNK         0.0864 
      6 C6        -81.5829   28.6913  -71.0245 C.3       11 UNK        -0.0881 
      7 S7        -81.5470   26.9376  -70.5024 S.3       11 UNK        -0.2682 
      8 C8        -80.7017   26.1166  -71.8935 C.3       11 UNK         0.0289 
      9 C9        -79.2069   26.4072  -71.9329 C.ar      11 UNK        -0.0687 
     10 C10       -78.3221   25.6443  -71.1646 C.ar      11 UNK        -0.0823 
     11 C11       -76.9471   25.8949  -71.2080 C.ar      11 UNK        -0.0830 
     12 C12       -76.4621   26.9355  -72.0054 C.ar      11 UNK        -0.1021 
     13 C13       -77.3301   27.6835  -72.8014 C.ar      11 UNK        -0.0753 
     14 C14       -78.7005   27.4140  -72.7608 C.ar      11 UNK        -0.0933 
     15 C15       -76.7855   28.7856  -73.6970 C.3       11 UNK         0.0166 
     16 S16       -75.7772   28.1077  -75.0556 S.3       11 UNK        -0.2615 
     17 C17       -75.7389   29.5369  -76.1949 C.3       11 UNK        -0.0865 
     18 CA        -74.3740   30.2689  -76.2687 C.3       10 UNK         0.0862 
     19 C         -74.0148   31.0286  -74.9561 C.2       10 UNK         0.5551 
     20 N         -72.8322   30.8540  -74.3769 N.am      10 UNK        -0.7319 
     21 O         -74.8239   31.8096  -74.4614 O.2       10 UNK        -0.5018 
     22 N         -73.3171   29.3851  -76.7807 N.am      10 UNK        -0.4509 
     23 C         -72.2606   29.7943  -77.4940 C.2       10 UNK         0.4899 
     24 O         -72.1015   30.9550  -77.8762 O.2       10 UNK        -0.4839 
     25 CA        -71.2034   28.7219  -77.8251 C.3       9 UNK         0.0222 
     26 CB        -69.8660   29.3262  -78.3031 C.3       9 UNK        -0.1966 
     27 N         -70.9735   27.7719  -76.7285 N.am      9 UNK        -0.4218 
     28 C         -70.5870   28.0570  -75.4725 C.2       9 UNK         0.5020 
     29 O         -70.4033   29.2042  -75.0627 O.2       9 UNK        -0.5274 
     30 CA        -70.3992   26.8867  -74.4877 C.3       8 UNK         0.0270 
     31 CB        -71.3385   27.0436  -73.2774 C.3       8 UNK        -0.1976 
     32 N         -70.6260   25.5794  -75.1101 N.am      8 UNK        -0.4313 
     33 C         -69.6992   24.8855  -75.7886 C.2       8 UNK         0.5041 
     34 O         -68.5242   25.2407  -75.8878 O.2       8 UNK        -0.5577 
     35 CA        -70.1460   23.5909  -76.4995 C.3       7 UNK         0.0284 
     36 CB        -69.7680   22.3614  -75.6575 C.3       7 UNK        -0.1958 
     37 N         -71.5780   23.5364  -76.8099 N.am      7 UNK        -0.4454 
     38 C         -72.2307   24.3799  -77.6224 C.2       7 UNK         0.5089 
     39 O         -71.6790   25.2756  -78.2613 O.2       7 UNK        -0.5125 
     40 CA        -73.7662   24.2536  -77.6702 C.3       6 UNK         0.0408 
     41 CB        -74.1974   23.3564  -78.8398 C.3       6 UNK        -0.1791 
     42 N         -74.3841   23.7653  -76.4286 N.am      6 UNK        -0.4762 
     43 C         -74.2188   24.2997  -75.2093 C.2       6 UNK         0.5007 
     44 O         -73.4598   25.2425  -74.9862 O.2       6 UNK        -0.5032 
     45 CA        -75.0428   23.6849  -74.0617 C.3       5 UNK         0.0783 
     46 C46       -74.5347   24.1419  -72.6676 C.3       11 UNK        -0.0857 
     47 S47       -75.5382   23.5047  -71.2802 S.3       11 UNK        -0.2512 
     48 C48       -75.9852   25.0378  -70.3989 C.3       11 UNK         0.0225 
     49 N         -76.4655   23.9626  -74.2871 N.am      5 UNK        -0.4615 
     50 C         -77.2573   23.2052  -75.0580 C.2       4 UNK         0.5053 
     51 O         -76.8625   22.2054  -75.6603 O.2       4 UNK        -0.5105 
     52 CA        -78.7254   23.6319  -75.1982 C.3       4 UNK         0.0263 
     53 CB        -79.5315   23.2219  -73.9558 C.3       4 UNK        -0.1981 
     54 N         -78.8946   25.0639  -75.4564 N.am      4 UNK        -0.4224 
     55 C         -78.5597   25.6719  -76.6050 C.2       3 UNK         0.4895 
     56 O         -78.0058   25.1011  -77.5456 O.2       3 UNK        -0.5091 
     57 CA        -78.9918   27.1406  -76.7430 C.3       3 UNK         0.0250 
     58 CB        -78.7301   27.7311  -78.1424 C.3       3 UNK        -0.1996 
     59 N         -80.4096   27.2580  -76.4026 N.am      3 UNK        -0.4254 
     60 C         -80.9604   28.2807  -75.7396 C.2       2 UNK         0.5004 
     61 O         -80.3386   29.2982  -75.4230 O.2       2 UNK        -0.5226 
     62 CA        -82.4212   28.1342  -75.2746 C.3       2 UNK         0.0269 
     63 CB        -82.9512   26.6795  -75.3902 C.3       2 UNK        -0.1926 
     64 N         -82.4261   28.6543  -73.9035 N.am      2 UNK        -0.4687 
     65 C         -83.3359   28.5387  -72.9279 C.2       1 UNK         0.5165 
     66 O         -84.4146   27.9531  -73.0518 O.2       1 UNK        -0.5079 
     67 H67       -85.8354   28.6093  -68.8539 H         1 UNK         0.0900 
     68 H68       -87.0943   29.2374  -69.9191 H         1 UNK         0.0900 
     69 H69       -86.2862   30.3136  -68.7756 H         1 UNK         0.0900 
     70 H70       -83.9209   28.2544  -69.9646 H         1 UNK         0.2959 
     71 H71       -82.8311   30.2556  -71.7887 H         1 UNK         0.1079 
     72 H72       -81.3250   29.2861  -70.1468 H         1 UNK         0.0837 
     73 H73       -80.7792   28.8911  -71.7311 H         1 UNK         0.0837 
     74 H74       -81.1708   26.4073  -72.8314 H         1 UNK         0.0685 
     75 H75       -80.8602   25.0413  -71.8015 H         1 UNK         0.0685 
     76 H76       -78.7033   24.8484  -70.5391 H         1 UNK         0.1434 
     77 H77       -75.4040   27.1564  -72.0302 H         1 UNK         0.1329 
     78 H78       -79.3733   27.9992  -73.3679 H         1 UNK         0.1335 
     79 H79       -76.1795   29.4739  -73.1062 H         1 UNK         0.0680 
     80 H80       -77.6097   29.3711  -74.1078 H         1 UNK         0.0680 
     81 H81       -75.9988   29.1689  -77.1882 H         1 UNK         0.1032 
     82 H82       -76.5321   30.2428  -75.9430 H         1 UNK         0.1032 
     83 H83       -74.5101   31.0612  -77.0074 H         1 UNK         0.0461 
     84 H84       -72.6226   31.3627  -73.5334 H         1 UNK         0.3453 
     85 H85       -72.1309   30.2431  -74.7797 H         1 UNK         0.3453 
     86 H86       -73.3658   28.4225  -76.4791 H         1 UNK         0.2984 
     87 H87       -71.6139   28.1382  -78.6501 H         1 UNK         0.0554 
     88 H88       -69.1463   28.5472  -78.5544 H         1 UNK         0.0847 
     89 H89       -69.4166   29.9654  -77.5424 H         1 UNK         0.0847 
     90 H90       -70.0073   29.9346  -79.1972 H         1 UNK         0.0847 
     91 H91       -71.1171   26.7984  -76.9761 H         1 UNK         0.3141 
     92 H92       -69.3714   26.9324  -74.1218 H         1 UNK         0.0743 
     93 H93       -71.0900   27.9394  -72.7069 H         1 UNK         0.0784 
     94 H94       -72.3818   27.1378  -73.5805 H         1 UNK         0.0784 
     95 H95       -71.2605   26.1954  -72.5971 H         1 UNK         0.0784 
     96 H96       -71.5889   25.2484  -75.0941 H         1 UNK         0.3213 
     97 H97       -69.6027   23.5395  -77.4455 H         1 UNK         0.0855 
     98 H98       -70.2989   22.3454  -74.7047 H         1 UNK         0.0814 
     99 H99       -68.7000   22.3547  -75.4347 H         1 UNK         0.0814 
    100 H100      -69.9916   21.4336  -76.1844 H         1 UNK         0.0814 
    101 H101      -72.1227   22.8381  -76.3252 H         1 UNK         0.3105 
    102 H102      -74.1635   25.2551  -77.8478 H         1 UNK         0.0547 
    103 H103      -75.2814   23.3523  -78.9566 H         1 UNK         0.0837 
    104 H104      -73.7738   23.7103  -79.7809 H         1 UNK         0.0837 
    105 H105      -73.8694   22.3256  -78.7010 H         1 UNK         0.0837 
    106 H106      -75.0673   23.0212  -76.5207 H         1 UNK         0.3020 
    107 H107      -74.8853   22.6044  -74.1051 H         1 UNK         0.1245 
    108 H108      -74.4741   25.2268  -72.6130 H         1 UNK         0.0781 
    109 H109      -73.5118   23.7920  -72.5167 H         1 UNK         0.0781 
    110 H110      -75.0802   25.5974  -70.1568 H         1 UNK         0.0836 
    111 H111      -76.4426   24.7751  -69.4439 H         1 UNK         0.0836 
    112 H112      -76.8414   24.7841  -73.8352 H         1 UNK         0.3022 
    113 H113      -79.1413   23.0944  -76.0536 H         1 UNK         0.0747 
    114 H114      -80.5812   23.5011  -74.0483 H         1 UNK         0.0793 
    115 H115      -79.4967   22.1410  -73.8132 H         1 UNK         0.0793 
    116 H116      -79.1364   23.6764  -73.0481 H         1 UNK         0.0793 
    117 H117      -79.3263   25.6106  -74.7270 H         1 UNK         0.3047 
    118 H118      -78.4028   27.7044  -76.0202 H         1 UNK         0.0822 
    119 H119      -77.6762   27.6492  -78.4107 H         1 UNK         0.0807 
    120 H120      -78.9922   28.7885  -78.1801 H         1 UNK         0.0807 
    121 H121      -79.3060   27.2141  -78.9107 H         1 UNK         0.0807 
    122 H122      -80.9813   26.4510  -76.6130 H         1 UNK         0.2946 
    123 H123      -83.0334   28.7908  -75.8953 H         1 UNK         0.1144 
    124 H124      -82.8950   26.3155  -76.4166 H         1 UNK         0.0793 
    125 H125      -84.0035   26.6092  -75.1190 H         1 UNK         0.0793 
    126 H126      -82.3993   25.9838  -74.7587 H         1 UNK         0.0793 
    127 H127      -81.5910   29.1974  -73.7168 H         1 UNK         0.2896 
@<TRIPOS>BOND
     1    1    2 1    
     2    1   67 1    
     3    1   68 1    
     4    1   69 1    
     5    2    3 2    
     6    2    4 am   BACKBONE|DICT|INTERRES
     7    4    5 1    
     8    4   70 1    
     9    5    6 1    
    10    5   65 1    
    11    5   71 1    
    12    6    7 1    
    13    6   72 1    
    14    6   73 1    
    15    7    8 1    
    16    8    9 1    
    17    8   74 1    
    18    8   75 1    
    19    9   10 ar   
    20    9   14 ar   
    21   10   11 ar   
    22   10   76 1    
    23   11   12 ar   
    24   11   48 1    
    25   12   13 ar   
    26   12   77 1    
    27   13   14 ar   
    28   13   15 1    
    29   14   78 1    
    30   15   16 1    
    31   15   79 1    
    32   15   80 1    
    33   16   17 1    
    34   17   18 1    
    35   17   81 1    
    36   17   82 1    
    37   18   19 1    
    38   18   22 1    
    39   18   83 1    
    40   19   20 am   BACKBONE|DICT|INTERRES
    41   19   21 2    
    42   20   84 1    
    43   20   85 1    
    44   22   23 am   BACKBONE|DICT|INTERRES
    45   22   86 1    
    46   23   24 2    
    47   23   25 1    
    48   25   26 1    
    49   25   27 1    
    50   25   87 1    
    51   26   88 1    
    52   26   89 1    
    53   26   90 1    
    54   27   28 am   BACKBONE|DICT|INTERRES
    55   27   91 1    
    56   28   29 2    
    57   28   30 1    
    58   30   31 1    
    59   30   32 1    
    60   30   92 1    
    61   31   93 1    
    62   31   94 1    
    63   31   95 1    
    64   32   33 am   BACKBONE|DICT|INTERRES
    65   32   96 1    
    66   33   34 2    
    67   33   35 1    
    68   35   36 1    
    69   35   37 1    
    70   35   97 1    
    71   36   98 1    
    72   36   99 1    
    73   36  100 1    
    74   37   38 am   BACKBONE|DICT|INTERRES
    75   37  101 1    
    76   38   39 2    
    77   38   40 1    
    78   40   41 1    
    79   40   42 1    
    80   40  102 1    
    81   41  103 1    
    82   41  104 1    
    83   41  105 1    
    84   42   43 am   BACKBONE|DICT|INTERRES
    85   42  106 1    
    86   43   44 2    
    87   43   45 1    
    88   45   46 1    
    89   45   49 1    
    90   45  107 1    
    91   46   47 1    
    92   46  108 1    
    93   46  109 1    
    94   47   48 1    
    95   48  110 1    
    96   48  111 1    
    97   49   50 am   BACKBONE|DICT|INTERRES
    98   49  112 1    
    99   50   51 2    
   100   50   52 1    
   101   52   53 1    
   102   52   54 1    
   103   52  113 1    
   104   53  114 1    
   105   53  115 1    
   106   53  116 1    
   107   54   55 am   BACKBONE|DICT|INTERRES
   108   54  117 1    
   109   55   56 2    
   110   55   57 1    
   111   57   58 1    
   112   57   59 1    
   113   57  118 1    
   114   58  119 1    
   115   58  120 1    
   116   58  121 1    
   117   59   60 am   BACKBONE|DICT|INTERRES
   118   59  122 1    
   119   60   61 2    
   120   60   62 1    
   121   62   63 1    
   122   62   64 1    
   123   62  123 1    
   124   63  124 1    
   125   63  125 1    
   126   63  126 1    
   127   64   65 am   BACKBONE|DICT|INTERRES
   128   64  127 1    
   129   65   66 2    
@<TRIPOS>SUBSTRUCTURE
     1 UNK         1 GROUP             0       ****    0 ROOT    
