@<TRIPOS>MOLECULE
3R135
127   129    1
SMALL
USER_CHARGES


@<TRIPOS>ATOM
      1 CA        -80.5117   30.6449  -77.2566 C.3       0 UNK        -0.1998 
      2 C         -80.3019   29.8648  -75.9676 C.2       0 UNK         0.4909 
      3 O         -79.2700   30.0311  -75.3199 O.2       0 UNK        -0.5240 
      4 N         -81.2683   29.0132  -75.6086 N.am      1 UNK        -0.4739 
      5 CA        -81.2519   28.1216  -74.4440 C.3       1 UNK         0.0864 
      6 C6        -82.1886   28.6183  -73.3075 C.3       11 UNK        -0.0881 
      7 S7        -81.7673   30.2807  -72.6821 S.3       11 UNK        -0.2682 
      8 C8        -80.8701   29.9034  -71.1408 C.3       11 UNK         0.0289 
      9 C9        -79.5091   29.2634  -71.3880 C.ar      11 UNK        -0.0687 
     10 C10       -79.2190   27.9955  -70.8704 C.ar      11 UNK        -0.0823 
     11 C11       -77.9558   27.4232  -71.0581 C.ar      11 UNK        -0.0830 
     12 C12       -76.9954   28.1228  -71.7897 C.ar      11 UNK        -0.1021 
     13 C13       -77.2643   29.3880  -72.3102 C.ar      11 UNK        -0.0753 
     14 C14       -78.5232   29.9572  -72.0993 C.ar      11 UNK        -0.0933 
     15 C15       -76.2016   30.1266  -73.1129 C.3       11 UNK         0.0166 
     16 S16       -75.0566   31.0641  -72.0510 S.3       11 UNK        -0.2615 
     17 C17       -73.8353   29.7934  -71.5552 C.3       11 UNK        -0.0865 
     18 CA        -72.5160   29.8703  -72.3684 C.3       10 UNK         0.0862 
     19 C         -71.4034   28.9515  -71.7803 C.2       10 UNK         0.5551 
     20 N         -70.6175   28.2471  -72.5875 N.am      10 UNK        -0.7319 
     21 O         -71.2355   28.8851  -70.5650 O.2       10 UNK        -0.5018 
     22 N         -72.7508   29.6324  -73.8017 N.am      10 UNK        -0.4509 
     23 C         -72.2399   30.3756  -74.7897 C.2       10 UNK         0.4899 
     24 O         -71.5635   31.3900  -74.6088 O.2       10 UNK        -0.4839 
     25 CA        -72.5256   29.8885  -76.2227 C.3       9 UNK         0.0222 
     26 CB        -71.6830   30.6227  -77.2870 C.3       9 UNK        -0.1966 
     27 N         -72.3934   28.4352  -76.3827 N.am      9 UNK        -0.4218 
     28 C         -71.3139   27.6760  -76.1293 C.2       9 UNK         0.5020 
     29 O         -70.2715   28.1189  -75.6448 O.2       9 UNK        -0.5274 
     30 CA        -71.3959   26.1643  -76.4343 C.3       8 UNK         0.0270 
     31 CB        -71.1949   25.3441  -75.1489 C.3       8 UNK        -0.1976 
     32 N         -72.6507   25.7524  -77.0679 N.am      8 UNK        -0.4313 
     33 C         -73.0035   26.0055  -78.3354 C.2       8 UNK         0.5041 
     34 O         -72.2552   26.5168  -79.1685 O.2       8 UNK        -0.5577 
     35 CA        -74.4635   25.7003  -78.7111 C.3       7 UNK         0.0284 
     36 CB        -74.6144   24.2639  -79.2382 C.3       7 UNK        -0.1958 
     37 N         -75.3805   25.9194  -77.5863 N.am      7 UNK        -0.4454 
     38 C         -75.6774   27.1231  -77.0735 C.2       7 UNK         0.5089 
     39 O         -75.2300   28.1809  -77.5132 O.2       7 UNK        -0.5125 
     40 CA        -76.5955   27.1453  -75.8432 C.3       6 UNK         0.0408 
     41 CB        -78.0559   26.9684  -76.2751 C.3       6 UNK        -0.1791 
     42 N         -76.2433   26.1131  -74.8676 N.am      6 UNK        -0.4762 
     43 C         -75.1295   26.0999  -74.1195 C.2       6 UNK         0.5007 
     44 O         -74.3081   27.0198  -74.1011 O.2       6 UNK        -0.5032 
     45 CA        -74.8632   24.8237  -73.2847 C.3       5 UNK         0.0783 
     46 C46       -75.3777   24.9461  -71.8253 C.3       11 UNK        -0.0857 
     47 S47       -77.2002   24.7996  -71.6590 S.3       11 UNK        -0.2512 
     48 C48       -77.6101   26.0787  -70.4282 C.3       11 UNK         0.0225 
     49 N         -75.3780   23.6042  -73.9138 N.am      5 UNK        -0.4615 
     50 C         -75.0900   23.1442  -75.1360 C.2       4 UNK         0.5053 
     51 O         -74.2418   23.6482  -75.8705 O.2       4 UNK        -0.5105 
     52 CA        -75.9302   21.9535  -75.6398 C.3       4 UNK         0.0263 
     53 CB        -76.2667   20.9499  -74.5154 C.3       4 UNK        -0.1981 
     54 N         -77.1630   22.3420  -76.3486 N.am      4 UNK        -0.4224 
     55 C         -78.1254   23.1842  -75.9345 C.2       3 UNK         0.4895 
     56 O         -78.0295   23.8898  -74.9304 O.2       3 UNK        -0.5091 
     57 CA        -79.4015   23.2932  -76.7992 C.3       3 UNK         0.0250 
     58 CB        -79.8279   21.9466  -77.4260 C.3       3 UNK        -0.1996 
     59 N         -80.5172   23.9032  -76.0540 N.am      3 UNK        -0.4254 
     60 C         -81.0961   23.4356  -74.9354 C.2       2 UNK         0.5004 
     61 O         -80.8436   22.3352  -74.4393 O.2       2 UNK        -0.5226 
     62 CA        -82.1215   24.3614  -74.2491 C.3       2 UNK         0.0269 
     63 CB        -82.6090   23.8046  -72.8971 C.3       2 UNK        -0.1926 
     64 N         -81.6044   25.7187  -74.0301 N.am      2 UNK        -0.4687 
     65 C         -81.6757   26.7151  -74.9212 C.2       1 UNK         0.5165 
     66 O         -82.0828   26.5468  -76.0751 O.2       1 UNK        -0.5079 
     67 H67       -81.4594   30.3974  -77.7345 H         1 UNK         0.0900 
     68 H68       -79.7090   30.4275  -77.9608 H         1 UNK         0.0900 
     69 H69       -80.5047   31.7149  -77.0510 H         1 UNK         0.0900 
     70 H70       -82.0524   28.8587  -76.2286 H         1 UNK         0.2959 
     71 H71       -80.2362   28.0431  -74.0501 H         1 UNK         0.1079 
     72 H72       -82.1842   27.9227  -72.4665 H         1 UNK         0.0837 
     73 H73       -83.2217   28.6535  -73.6588 H         1 UNK         0.0837 
     74 H74       -80.7215   30.8331  -70.5901 H         1 UNK         0.0685 
     75 H75       -81.4945   29.2716  -70.5072 H         1 UNK         0.0685 
     76 H76       -79.9693   27.4649  -70.3002 H         1 UNK         0.1434 
     77 H77       -76.0305   27.6803  -71.9555 H         1 UNK         0.1329 
     78 H78       -78.7434   30.9362  -72.5024 H         1 UNK         0.1335 
     79 H79       -76.6805   30.8167  -73.8093 H         1 UNK         0.0680 
     80 H80       -75.6329   29.4276  -73.7251 H         1 UNK         0.0680 
     81 H81       -73.6367   29.9487  -70.4931 H         1 UNK         0.1032 
     82 H82       -74.2565   28.7945  -71.6314 H         1 UNK         0.1032 
     83 H83       -72.1311   30.8824  -72.2327 H         1 UNK         0.0461 
     84 H84       -69.8995   27.6666  -72.1852 H         1 UNK         0.3453 
     85 H85       -70.6922   28.3296  -73.5938 H         1 UNK         0.3453 
     86 H86       -73.2632   28.7862  -74.0310 H         1 UNK         0.2984 
     87 H87       -73.5736   30.1215  -76.4152 H         1 UNK         0.0554 
     88 H88       -71.9308   30.2818  -78.2923 H         1 UNK         0.0847 
     89 H89       -70.6144   30.4671  -77.1339 H         1 UNK         0.0847 
     90 H90       -71.8634   31.6979  -77.2575 H         1 UNK         0.0847 
     91 H91       -73.2180   27.9770  -76.7510 H         1 UNK         0.3141 
     92 H92       -70.5794   25.9288  -77.1199 H         1 UNK         0.0743 
     93 H93       -71.2797   24.2737  -75.3381 H         1 UNK         0.0784 
     94 H94       -70.2056   25.5206  -74.7246 H         1 UNK         0.0784 
     95 H95       -71.9243   25.6120  -74.3853 H         1 UNK         0.0784 
     96 H96       -73.3068   25.2325  -76.4906 H         1 UNK         0.3213 
     97 H97       -74.7466   26.3861  -79.5128 H         1 UNK         0.0855 
     98 H98       -73.9780   24.1038  -80.1095 H         1 UNK         0.0814 
     99 H99       -75.6399   24.0591  -79.5458 H         1 UNK         0.0814 
    100 H100      -74.3322   23.5209  -78.4922 H         1 UNK         0.0814 
    101 H101      -75.7310   25.0964  -77.1182 H         1 UNK         0.3105 
    102 H102      -76.5024   28.1190  -75.3618 H         1 UNK         0.0547 
    103 H103      -78.3762   27.7993  -76.9039 H         1 UNK         0.0837 
    104 H104      -78.2063   26.0554  -76.8484 H         1 UNK         0.0837 
    105 H105      -78.7147   26.9331  -75.4104 H         1 UNK         0.0837 
    106 H106      -76.8779   25.3190  -74.7872 H         1 UNK         0.3020 
    107 H107      -73.7784   24.7140  -73.2413 H         1 UNK         0.1245 
    108 H108      -75.0113   25.8601  -71.3577 H         1 UNK         0.0781 
    109 H109      -74.9432   24.1401  -71.2320 H         1 UNK         0.0781 
    110 H110      -76.7833   26.2031  -69.7277 H         1 UNK         0.0836 
    111 H111      -78.4507   25.7148  -69.8356 H         1 UNK         0.0836 
    112 H112      -76.1584   23.1790  -73.4324 H         1 UNK         0.3022 
    113 H113      -75.3061   21.4316  -76.3671 H         1 UNK         0.0747 
    114 H114      -76.6850   20.0311  -74.9265 H         1 UNK         0.0793 
    115 H115      -75.3739   20.6715  -73.9534 H         1 UNK         0.0793 
    116 H116      -76.9935   21.3494  -73.8069 H         1 UNK         0.0793 
    117 H117      -77.3223   21.8517  -77.2176 H         1 UNK         0.3047 
    118 H118      -79.1684   23.9796  -77.6140 H         1 UNK         0.0822 
    119 H119      -79.9316   21.1623  -76.6750 H         1 UNK         0.0807 
    120 H120      -79.1037   21.6008  -78.1639 H         1 UNK         0.0807 
    121 H121      -80.7834   22.0380  -77.9427 H         1 UNK         0.0807 
    122 H122      -80.8064   24.8238  -76.3627 H         1 UNK         0.2946 
    123 H123      -82.9887   24.4093  -74.9125 H         1 UNK         0.1144 
    124 H124      -83.0602   22.8187  -73.0182 H         1 UNK         0.0793 
    125 H125      -81.7899   23.7039  -72.1838 H         1 UNK         0.0793 
    126 H126      -83.3660   24.4500  -72.4512 H         1 UNK         0.0793 
    127 H127      -81.2041   25.8992  -73.1205 H         1 UNK         0.2896 
@<TRIPOS>BOND
     1    1    2 1    
     2    1   67 1    
     3    1   68 1    
     4    1   69 1    
     5    2    3 2    
     6    2    4 am   BACKBONE|DICT|INTERRES
     7    4    5 1    
     8    4   70 1    
     9    5    6 1    
    10    5   65 1    
    11    5   71 1    
    12    6    7 1    
    13    6   72 1    
    14    6   73 1    
    15    7    8 1    
    16    8    9 1    
    17    8   74 1    
    18    8   75 1    
    19    9   10 ar   
    20    9   14 ar   
    21   10   11 ar   
    22   10   76 1    
    23   11   12 ar   
    24   11   48 1    
    25   12   13 ar   
    26   12   77 1    
    27   13   14 ar   
    28   13   15 1    
    29   14   78 1    
    30   15   16 1    
    31   15   79 1    
    32   15   80 1    
    33   16   17 1    
    34   17   18 1    
    35   17   81 1    
    36   17   82 1    
    37   18   19 1    
    38   18   22 1    
    39   18   83 1    
    40   19   20 am   BACKBONE|DICT|INTERRES
    41   19   21 2    
    42   20   84 1    
    43   20   85 1    
    44   22   23 am   BACKBONE|DICT|INTERRES
    45   22   86 1    
    46   23   24 2    
    47   23   25 1    
    48   25   26 1    
    49   25   27 1    
    50   25   87 1    
    51   26   88 1    
    52   26   89 1    
    53   26   90 1    
    54   27   28 am   BACKBONE|DICT|INTERRES
    55   27   91 1    
    56   28   29 2    
    57   28   30 1    
    58   30   31 1    
    59   30   32 1    
    60   30   92 1    
    61   31   93 1    
    62   31   94 1    
    63   31   95 1    
    64   32   33 am   BACKBONE|DICT|INTERRES
    65   32   96 1    
    66   33   34 2    
    67   33   35 1    
    68   35   36 1    
    69   35   37 1    
    70   35   97 1    
    71   36   98 1    
    72   36   99 1    
    73   36  100 1    
    74   37   38 am   BACKBONE|DICT|INTERRES
    75   37  101 1    
    76   38   39 2    
    77   38   40 1    
    78   40   41 1    
    79   40   42 1    
    80   40  102 1    
    81   41  103 1    
    82   41  104 1    
    83   41  105 1    
    84   42   43 am   BACKBONE|DICT|INTERRES
    85   42  106 1    
    86   43   44 2    
    87   43   45 1    
    88   45   46 1    
    89   45   49 1    
    90   45  107 1    
    91   46   47 1    
    92   46  108 1    
    93   46  109 1    
    94   47   48 1    
    95   48  110 1    
    96   48  111 1    
    97   49   50 am   BACKBONE|DICT|INTERRES
    98   49  112 1    
    99   50   51 2    
   100   50   52 1    
   101   52   53 1    
   102   52   54 1    
   103   52  113 1    
   104   53  114 1    
   105   53  115 1    
   106   53  116 1    
   107   54   55 am   BACKBONE|DICT|INTERRES
   108   54  117 1    
   109   55   56 2    
   110   55   57 1    
   111   57   58 1    
   112   57   59 1    
   113   57  118 1    
   114   58  119 1    
   115   58  120 1    
   116   58  121 1    
   117   59   60 am   BACKBONE|DICT|INTERRES
   118   59  122 1    
   119   60   61 2    
   120   60   62 1    
   121   62   63 1    
   122   62   64 1    
   123   62  123 1    
   124   63  124 1    
   125   63  125 1    
   126   63  126 1    
   127   64   65 am   BACKBONE|DICT|INTERRES
   128   64  127 1    
   129   65   66 2    
@<TRIPOS>SUBSTRUCTURE
     1 UNK         1 GROUP             0       ****    0 ROOT    
