@<TRIPOS>MOLECULE
3R135
127   129    1
SMALL
USER_CHARGES


@<TRIPOS>ATOM
      1 CA        -82.7850   26.4979  -69.7135 C.3       0 UNK        -0.1998 
      2 C         -83.2989   26.6674  -71.1352 C.2       0 UNK         0.4909 
      3 O         -84.2897   26.0397  -71.5095 O.2       0 UNK        -0.5240 
      4 N         -82.6291   27.5109  -71.9311 N.am      1 UNK        -0.4739 
      5 CA        -82.9478   27.7770  -73.3410 C.3       1 UNK         0.0864 
      6 C6        -82.4044   29.1552  -73.8022 C.3       11 UNK        -0.0881 
      7 S7        -80.5931   29.3289  -73.6614 S.3       11 UNK        -0.2682 
      8 C8        -80.4134   30.1630  -72.0499 C.3       11 UNK         0.0289 
      9 C9        -79.0288   29.8934  -71.4865 C.ar      11 UNK        -0.0687 
     10 C10       -78.7077   28.6108  -71.0344 C.ar      11 UNK        -0.0823 
     11 C11       -77.4013   28.2993  -70.6506 C.ar      11 UNK        -0.0830 
     12 C12       -76.4282   29.3023  -70.6499 C.ar      11 UNK        -0.1021 
     13 C13       -76.7442   30.5964  -71.0735 C.ar      11 UNK        -0.0753 
     14 C14       -78.0482   30.8896  -71.4861 C.ar      11 UNK        -0.0933 
     15 C15       -75.6592   31.6610  -71.1342 C.3       11 UNK         0.0166 
     16 S16       -75.2452   32.1325  -72.8464 S.3       11 UNK        -0.2615 
     17 C17       -74.6965   30.5569  -73.5932 C.3       11 UNK        -0.0865 
     18 CA        -73.1528   30.3983  -73.5873 C.3       10 UNK         0.0862 
     19 C         -72.6489   29.6909  -72.3040 C.2       10 UNK         0.5551 
     20 N         -71.9992   30.4169  -71.4048 N.am      10 UNK        -0.7319 
     21 O         -72.8765   28.5002  -72.1015 O.2       10 UNK        -0.5018 
     22 N         -72.7001   29.6787  -74.7820 N.am      10 UNK        -0.4509 
     23 C         -71.5588   29.9282  -75.4347 C.2       10 UNK         0.4899 
     24 O         -70.7555   30.8019  -75.1023 O.2       10 UNK        -0.4839 
     25 CA        -71.2916   29.0726  -76.6867 C.3       9 UNK         0.0222 
     26 CB        -69.9095   29.3327  -77.3245 C.3       9 UNK        -0.1966 
     27 N         -71.5068   27.6420  -76.4526 N.am      9 UNK        -0.4218 
     28 C         -70.8297   26.8353  -75.6203 C.2       9 UNK         0.5020 
     29 O         -69.8810   27.2072  -74.9277 O.2       9 UNK        -0.5274 
     30 CA        -71.2716   25.3592  -75.5295 C.3       8 UNK         0.0270 
     31 CB        -71.7836   25.0416  -74.1142 C.3       8 UNK        -0.1976 
     32 N         -72.2965   24.9766  -76.5071 N.am      8 UNK        -0.4313 
     33 C         -72.0875   24.8047  -77.8201 C.2       8 UNK         0.5041 
     34 O         -70.9777   24.8683  -78.3497 O.2       8 UNK        -0.5577 
     35 CA        -73.3312   24.5740  -78.6988 C.3       7 UNK         0.0284 
     36 CB        -73.7085   23.0847  -78.7313 C.3       7 UNK        -0.1958 
     37 N         -74.4902   25.3694  -78.2772 N.am      7 UNK        -0.4454 
     38 C         -74.5391   26.7102  -78.2714 C.2       7 UNK         0.5089 
     39 O         -73.6224   27.4299  -78.6653 O.2       7 UNK        -0.5125 
     40 CA        -75.7892   27.3597  -77.6539 C.3       6 UNK         0.0408 
     41 CB        -76.9655   27.3668  -78.6426 C.3       6 UNK        -0.1791 
     42 N         -76.1786   26.7033  -76.4040 N.am      6 UNK        -0.4762 
     43 C         -75.4487   26.7415  -75.2785 C.2       6 UNK         0.5007 
     44 O         -74.4222   27.4105  -75.1583 O.2       6 UNK        -0.5032 
     45 CA        -75.9224   25.8618  -74.1056 C.3       5 UNK         0.0783 
     46 C46       -76.8995   26.6488  -73.2098 C.3       11 UNK        -0.0857 
     47 S47       -77.4298   25.7195  -71.7242 S.3       11 UNK        -0.2512 
     48 C48       -77.0114   26.8566  -70.3515 C.3       11 UNK         0.0225 
     49 N         -76.4920   24.5993  -74.5827 N.am      5 UNK        -0.4615 
     50 C         -75.7685   23.6043  -75.1125 C.2       4 UNK         0.5053 
     51 O         -74.5452   23.6432  -75.2317 O.2       4 UNK        -0.5105 
     52 CA        -76.5385   22.3822  -75.6417 C.3       4 UNK         0.0263 
     53 CB        -76.7996   21.3795  -74.5069 C.3       4 UNK        -0.1981 
     54 N         -77.8072   22.7417  -76.2787 N.am      4 UNK        -0.4224 
     55 C         -77.9245   23.5218  -77.3635 C.2       3 UNK         0.4895 
     56 O         -76.9625   23.9520  -77.9985 O.2       3 UNK        -0.5091 
     57 CA        -79.3473   23.9328  -77.7841 C.3       3 UNK         0.0250 
     58 CB        -79.8618   23.0152  -78.9040 C.3       3 UNK        -0.1996 
     59 N         -80.3072   23.9375  -76.6733 N.am      3 UNK        -0.4254 
     60 C         -80.2438   24.7574  -75.6143 C.2       2 UNK         0.5004 
     61 O         -79.3732   25.6177  -75.4645 O.2       2 UNK        -0.5226 
     62 CA        -81.2618   24.4917  -74.4959 C.3       2 UNK         0.0269 
     63 CB        -80.6641   23.5216  -73.4624 C.3       2 UNK        -0.1926 
     64 N         -81.6695   25.7145  -73.8057 N.am      2 UNK        -0.4687 
     65 C         -82.5368   26.6188  -74.2836 C.2       1 UNK         0.5165 
     66 O         -83.0477   26.5415  -75.4025 O.2       1 UNK        -0.5079 
     67 H67       -81.9121   27.1202  -69.5168 H         1 UNK         0.0900 
     68 H68       -83.5619   26.7693  -68.9993 H         1 UNK         0.0900 
     69 H69       -82.5075   25.4590  -69.5367 H         1 UNK         0.0900 
     70 H70       -81.8212   27.9985  -71.5750 H         1 UNK         0.2959 
     71 H71       -84.0364   27.8326  -73.4172 H         1 UNK         0.1079 
     72 H72       -82.8838   29.9510  -73.2298 H         1 UNK         0.0837 
     73 H73       -82.6836   29.3409  -74.8412 H         1 UNK         0.0837 
     74 H74       -80.5858   31.2330  -72.1767 H         1 UNK         0.0685 
     75 H75       -81.1648   29.8093  -71.3438 H         1 UNK         0.0685 
     76 H76       -79.4531   27.8285  -71.0646 H         1 UNK         0.1434 
     77 H77       -75.4105   29.0639  -70.3707 H         1 UNK         0.1329 
     78 H78       -78.2839   31.8811  -71.8481 H         1 UNK         0.1335 
     79 H79       -74.7537   31.3253  -70.6267 H         1 UNK         0.0680 
     80 H80       -75.9987   32.5478  -70.5972 H         1 UNK         0.0680 
     81 H81       -75.1975   29.7016  -73.1389 H         1 UNK         0.1032 
     82 H82       -75.0623   30.5765  -74.6213 H         1 UNK         0.1032 
     83 H83       -72.7177   31.3996  -73.6218 H         1 UNK         0.0461 
     84 H84       -71.8144   31.3953  -71.5625 H         1 UNK         0.3453 
     85 H85       -71.6736   29.9746  -70.5598 H         1 UNK         0.3453 
     86 H86       -73.2645   28.8754  -75.0514 H         1 UNK         0.2984 
     87 H87       -72.0442   29.3710  -77.4177 H         1 UNK         0.0554 
     88 H88       -69.8071   30.3778  -77.6190 H         1 UNK         0.0847 
     89 H89       -69.7671   28.7291  -78.2208 H         1 UNK         0.0847 
     90 H90       -69.0938   29.1098  -76.6362 H         1 UNK         0.0847 
     91 H91       -72.2769   27.2399  -76.9738 H         1 UNK         0.3141 
     92 H92       -70.3861   24.7476  -75.7139 H         1 UNK         0.0743 
     93 H93       -72.6478   25.6532  -73.8548 H         1 UNK         0.0784 
     94 H94       -72.0684   23.9938  -74.0176 H         1 UNK         0.0784 
     95 H95       -71.0142   25.2371  -73.3662 H         1 UNK         0.0784 
     96 H96       -73.2284   24.8034  -76.1405 H         1 UNK         0.3213 
     97 H97       -73.0766   24.8821  -79.7152 H         1 UNK         0.0855 
     98 H98       -73.9721   22.7125  -77.7414 H         1 UNK         0.0814 
     99 H99       -72.8768   22.4803  -79.0956 H         1 UNK         0.0814 
    100 H100      -74.5559   22.9039  -79.3929 H         1 UNK         0.0814 
    101 H101      -75.3215   24.8551  -77.9920 H         1 UNK         0.3105 
    102 H102      -75.5446   28.3985  -77.4212 H         1 UNK         0.0547 
    103 H103      -76.7083   27.9257  -79.5432 H         1 UNK         0.0837 
    104 H104      -77.2456   26.3622  -78.9573 H         1 UNK         0.0837 
    105 H105      -77.8462   27.8404  -78.2087 H         1 UNK         0.0837 
    106 H106      -77.0155   26.1356  -76.4182 H         1 UNK         0.3020 
    107 H107      -75.0396   25.6264  -73.5069 H         1 UNK         0.1245 
    108 H108      -77.7948   26.9376  -73.7637 H         1 UNK         0.0781 
    109 H109      -76.4215   27.5811  -72.9113 H         1 UNK         0.0781 
    110 H110      -75.9411   26.7790  -70.1539 H         1 UNK         0.0836 
    111 H111      -77.5185   26.5257  -69.4444 H         1 UNK         0.0836 
    112 H112      -77.4995   24.5262  -74.5509 H         1 UNK         0.3022 
    113 H113      -75.9139   21.8959  -76.3937 H         1 UNK         0.0747 
    114 H114      -77.2747   20.4720  -74.8799 H         1 UNK         0.0793 
    115 H115      -75.8652   21.0809  -74.0294 H         1 UNK         0.0793 
    116 H116      -77.4408   21.8016  -73.7317 H         1 UNK         0.0793 
    117 H117      -78.6511   22.4163  -75.8320 H         1 UNK         0.3047 
    118 H118      -79.2877   24.9507  -78.1754 H         1 UNK         0.0822 
    119 H119      -80.8322   23.3463  -79.2747 H         1 UNK         0.0807 
    120 H120      -79.9637   21.9826  -78.5678 H         1 UNK         0.0807 
    121 H121      -79.1765   23.0151  -79.7530 H         1 UNK         0.0807 
    122 H122      -81.0462   23.2497  -76.7159 H         1 UNK         0.2946 
    123 H123      -82.1532   24.0342  -74.9317 H         1 UNK         0.1144 
    124 H124      -81.3793   23.2959  -72.6710 H         1 UNK         0.0793 
    125 H125      -79.7671   23.9310  -72.9953 H         1 UNK         0.0793 
    126 H126      -80.3879   22.5728  -73.9241 H         1 UNK         0.0793 
    127 H127      -81.2672   25.8793  -72.8956 H         1 UNK         0.2896 
@<TRIPOS>BOND
     1    1    2 1    
     2    1   67 1    
     3    1   68 1    
     4    1   69 1    
     5    2    3 2    
     6    2    4 am   BACKBONE|DICT|INTERRES
     7    4    5 1    
     8    4   70 1    
     9    5    6 1    
    10    5   65 1    
    11    5   71 1    
    12    6    7 1    
    13    6   72 1    
    14    6   73 1    
    15    7    8 1    
    16    8    9 1    
    17    8   74 1    
    18    8   75 1    
    19    9   10 ar   
    20    9   14 ar   
    21   10   11 ar   
    22   10   76 1    
    23   11   12 ar   
    24   11   48 1    
    25   12   13 ar   
    26   12   77 1    
    27   13   14 ar   
    28   13   15 1    
    29   14   78 1    
    30   15   16 1    
    31   15   79 1    
    32   15   80 1    
    33   16   17 1    
    34   17   18 1    
    35   17   81 1    
    36   17   82 1    
    37   18   19 1    
    38   18   22 1    
    39   18   83 1    
    40   19   20 am   BACKBONE|DICT|INTERRES
    41   19   21 2    
    42   20   84 1    
    43   20   85 1    
    44   22   23 am   BACKBONE|DICT|INTERRES
    45   22   86 1    
    46   23   24 2    
    47   23   25 1    
    48   25   26 1    
    49   25   27 1    
    50   25   87 1    
    51   26   88 1    
    52   26   89 1    
    53   26   90 1    
    54   27   28 am   BACKBONE|DICT|INTERRES
    55   27   91 1    
    56   28   29 2    
    57   28   30 1    
    58   30   31 1    
    59   30   32 1    
    60   30   92 1    
    61   31   93 1    
    62   31   94 1    
    63   31   95 1    
    64   32   33 am   BACKBONE|DICT|INTERRES
    65   32   96 1    
    66   33   34 2    
    67   33   35 1    
    68   35   36 1    
    69   35   37 1    
    70   35   97 1    
    71   36   98 1    
    72   36   99 1    
    73   36  100 1    
    74   37   38 am   BACKBONE|DICT|INTERRES
    75   37  101 1    
    76   38   39 2    
    77   38   40 1    
    78   40   41 1    
    79   40   42 1    
    80   40  102 1    
    81   41  103 1    
    82   41  104 1    
    83   41  105 1    
    84   42   43 am   BACKBONE|DICT|INTERRES
    85   42  106 1    
    86   43   44 2    
    87   43   45 1    
    88   45   46 1    
    89   45   49 1    
    90   45  107 1    
    91   46   47 1    
    92   46  108 1    
    93   46  109 1    
    94   47   48 1    
    95   48  110 1    
    96   48  111 1    
    97   49   50 am   BACKBONE|DICT|INTERRES
    98   49  112 1    
    99   50   51 2    
   100   50   52 1    
   101   52   53 1    
   102   52   54 1    
   103   52  113 1    
   104   53  114 1    
   105   53  115 1    
   106   53  116 1    
   107   54   55 am   BACKBONE|DICT|INTERRES
   108   54  117 1    
   109   55   56 2    
   110   55   57 1    
   111   57   58 1    
   112   57   59 1    
   113   57  118 1    
   114   58  119 1    
   115   58  120 1    
   116   58  121 1    
   117   59   60 am   BACKBONE|DICT|INTERRES
   118   59  122 1    
   119   60   61 2    
   120   60   62 1    
   121   62   63 1    
   122   62   64 1    
   123   62  123 1    
   124   63  124 1    
   125   63  125 1    
   126   63  126 1    
   127   64   65 am   BACKBONE|DICT|INTERRES
   128   64  127 1    
   129   65   66 2    
@<TRIPOS>SUBSTRUCTURE
     1 UNK         1 GROUP             0       ****    0 ROOT    
