@<TRIPOS>MOLECULE
3R135
127   129    1
SMALL
USER_CHARGES


@<TRIPOS>ATOM
      1 CA        -80.3541   27.3793  -75.2265 C.3       0 UNK        -0.1998 
      2 C         -79.9368   26.5825  -74.0014 C.2       0 UNK         0.4909 
      3 O         -78.9602   25.8337  -74.0439 O.2       0 UNK        -0.5240 
      4 N         -80.6819   26.7403  -72.9031 N.am      1 UNK        -0.4739 
      5 CA        -80.4793   26.0168  -71.6496 C.3       1 UNK         0.0864 
      6 C6        -81.2778   26.6641  -70.4906 C.3       11 UNK        -0.0881 
      7 S7        -80.4096   28.0705  -69.7178 S.3       11 UNK        -0.2682 
      8 C8        -80.5932   29.4213  -70.9385 C.3       11 UNK         0.0289 
      9 C9        -79.3995   29.6133  -71.8803 C.ar      11 UNK        -0.0687 
     10 C10       -79.6000   30.2371  -73.1177 C.ar      11 UNK        -0.0823 
     11 C11       -78.5299   30.4959  -73.9839 C.ar      11 UNK        -0.0830 
     12 C12       -77.2389   30.1117  -73.5976 C.ar      11 UNK        -0.1021 
     13 C13       -77.0188   29.4953  -72.3639 C.ar      11 UNK        -0.0753 
     14 C14       -78.0981   29.2484  -71.5130 C.ar      11 UNK        -0.0933 
     15 C15       -75.6084   29.1350  -71.9281 C.3       11 UNK         0.0166 
     16 S16       -74.8134   30.5473  -71.1046 S.3       11 UNK        -0.2615 
     17 C17       -73.2588   29.8018  -70.5076 C.3       11 UNK        -0.0865 
     18 CA        -72.0698   30.0614  -71.4685 C.3       10 UNK         0.0862 
     19 C         -70.7101   29.7511  -70.7771 C.2       10 UNK         0.5551 
     20 N         -69.9245   28.7893  -71.2485 N.am      10 UNK        -0.7319 
     21 O         -70.3568   30.4053  -69.7991 O.2       10 UNK        -0.5018 
     22 N         -72.2498   29.3473  -72.7409 N.am      10 UNK        -0.4509 
     23 C         -71.8342   29.7705  -73.9371 C.2       10 UNK         0.4899 
     24 O         -71.3319   30.8786  -74.1285 O.2       10 UNK        -0.4839 
     25 CA        -71.9888   28.8129  -75.1370 C.3       9 UNK         0.0222 
     26 CB        -70.6246   28.2170  -75.5348 C.3       9 UNK        -0.1966 
     27 N         -72.9956   27.7451  -75.0167 N.am      9 UNK        -0.4218 
     28 C         -73.0464   26.7127  -74.1596 C.2       9 UNK         0.5020 
     29 O         -72.2908   26.5791  -73.1963 O.2       9 UNK        -0.5274 
     30 CA        -74.1165   25.6409  -74.4257 C.3       8 UNK         0.0270 
     31 CB        -75.4909   26.0802  -73.8967 C.3       8 UNK        -0.1976 
     32 N         -74.2266   25.3009  -75.8442 N.am      8 UNK        -0.4313 
     33 C         -73.2754   24.6931  -76.5680 C.2       8 UNK         0.5041 
     34 O         -72.2069   24.2909  -76.1061 O.2       8 UNK        -0.5577 
     35 CA        -73.5618   24.5142  -78.0661 C.3       7 UNK         0.0284 
     36 CB        -74.4727   23.2994  -78.3115 C.3       7 UNK        -0.1958 
     37 N         -74.1682   25.7183  -78.6375 N.am      7 UNK        -0.4454 
     38 C         -73.4760   26.7992  -79.0245 C.2       7 UNK         0.5089 
     39 O         -72.2469   26.8682  -79.0056 O.2       7 UNK        -0.5125 
     40 CA        -74.2838   28.0123  -79.5242 C.3       6 UNK         0.0408 
     41 CB        -74.3941   27.9852  -81.0569 C.3       6 UNK        -0.1791 
     42 N         -75.6273   28.1081  -78.9458 N.am      6 UNK        -0.4762 
     43 C         -75.8828   28.3953  -77.6607 C.2       6 UNK         0.5007 
     44 O         -75.0077   28.6006  -76.8198 O.2       6 UNK        -0.5032 
     45 CA        -77.3650   28.3683  -77.2287 C.3       5 UNK         0.0783 
     46 C46       -78.0996   29.6930  -77.5516 C.3       11 UNK        -0.0857 
     47 S47       -77.5236   31.1230  -76.5764 S.3       11 UNK        -0.2512 
     48 C48       -78.8012   31.2730  -75.2752 C.3       11 UNK         0.0225 
     49 N         -78.0973   27.2218  -77.7864 N.am      5 UNK        -0.4615 
     50 C         -77.7653   25.9382  -77.6071 C.2       4 UNK         0.5053 
     51 O         -76.7428   25.5717  -77.0249 O.2       4 UNK        -0.5105 
     52 CA        -78.6908   24.8864  -78.2307 C.3       4 UNK         0.0263 
     53 CB        -78.2386   24.5660  -79.6648 C.3       4 UNK        -0.1981 
     54 N         -78.6174   23.6713  -77.4231 N.am      4 UNK        -0.4224 
     55 C         -79.4328   23.3824  -76.4027 C.2       3 UNK         0.4895 
     56 O         -80.4929   23.9723  -76.1848 O.2       3 UNK        -0.5091 
     57 CA        -78.9952   22.2390  -75.4727 C.3       3 UNK         0.0250 
     58 CB        -77.4830   21.9233  -75.5326 C.3       3 UNK        -0.1996 
     59 N         -79.3613   22.5668  -74.0947 N.am      3 UNK        -0.4254 
     60 C         -79.8342   21.6907  -73.1982 C.2       2 UNK         0.5004 
     61 O         -80.0465   20.5049  -73.4576 O.2       2 UNK        -0.5226 
     62 CA        -80.0911   22.1855  -71.7606 C.3       2 UNK         0.0269 
     63 CB        -79.1558   21.4699  -70.7697 C.3       2 UNK        -0.1926 
     64 N         -79.9227   23.6317  -71.5954 N.am      2 UNK        -0.4687 
     65 C         -80.8715   24.5400  -71.8515 C.2       1 UNK         0.5165 
     66 O         -82.0100   24.2563  -72.2314 O.2       1 UNK        -0.5079 
     67 H67       -80.4120   26.7283  -76.0971 H         1 UNK         0.0900 
     68 H68       -79.6266   28.1631  -75.4207 H         1 UNK         0.0900 
     69 H69       -81.3284   27.8489  -75.0938 H         1 UNK         0.0900 
     70 H70       -81.4908   27.3420  -72.9348 H         1 UNK         0.2959 
     71 H71       -79.4150   26.0582  -71.4052 H         1 UNK         0.1079 
     72 H72       -82.2742   26.9720  -70.8132 H         1 UNK         0.0837 
     73 H73       -81.4421   25.9418  -69.6880 H         1 UNK         0.0837 
     74 H74       -80.7332   30.3524  -70.3882 H         1 UNK         0.0685 
     75 H75       -81.5089   29.2668  -71.5106 H         1 UNK         0.0685 
     76 H76       -80.5964   30.5532  -73.3958 H         1 UNK         0.1434 
     77 H77       -76.3889   30.3233  -74.2310 H         1 UNK         0.1329 
     78 H78       -77.9092   28.7964  -70.5500 H         1 UNK         0.1335 
     79 H79       -75.0155   28.8401  -72.7941 H         1 UNK         0.0680 
     80 H80       -75.6306   28.2783  -71.2529 H         1 UNK         0.0680 
     81 H81       -73.0604   30.2396  -69.5272 H         1 UNK         0.1032 
     82 H82       -73.3932   28.7327  -70.3334 H         1 UNK         0.1032 
     83 H83       -72.0495   31.1330  -71.6762 H         1 UNK         0.0461 
     84 H84       -70.2144   28.2370  -72.0402 H         1 UNK         0.3453 
     85 H85       -69.0443   28.6020  -70.7948 H         1 UNK         0.3453 
     86 H86       -72.5402   28.3770  -72.6762 H         1 UNK         0.2984 
     87 H87       -72.3299   29.4305  -75.9695 H         1 UNK         0.0554 
     88 H88       -70.7040   27.6261  -76.4479 H         1 UNK         0.0847 
     89 H89       -70.2189   27.5730  -74.7541 H         1 UNK         0.0847 
     90 H90       -69.8919   29.0032  -75.7212 H         1 UNK         0.0847 
     91 H91       -73.7376   27.8107  -75.7117 H         1 UNK         0.3141 
     92 H92       -73.8205   24.7362  -73.8906 H         1 UNK         0.0743 
     93 H93       -75.4527   26.2788  -72.8255 H         1 UNK         0.0784 
     94 H94       -75.8493   26.9846  -74.3901 H         1 UNK         0.0784 
     95 H95       -76.2400   25.3033  -74.0522 H         1 UNK         0.0784 
     96 H96       -75.1099   25.5292  -76.2996 H         1 UNK         0.3213 
     97 H97       -72.6105   24.3250  -78.5690 H         1 UNK         0.0855 
     98 H98       -75.4352   23.4010  -77.8114 H         1 UNK         0.0814 
     99 H99       -74.0086   22.3868  -77.9352 H         1 UNK         0.0814 
    100 H100      -74.6595   23.1519  -79.3752 H         1 UNK         0.0814 
    101 H101      -75.1770   25.7724  -78.6235 H         1 UNK         0.3105 
    102 H102      -73.7318   28.9109  -79.2399 H         1 UNK         0.0547 
    103 H103      -74.9536   27.1171  -81.4077 H         1 UNK         0.0837 
    104 H104      -74.8873   28.8802  -81.4362 H         1 UNK         0.0837 
    105 H105      -73.4062   27.9431  -81.5180 H         1 UNK         0.0837 
    106 H106      -76.4064   27.9349  -79.5647 H         1 UNK         0.3020 
    107 H107      -77.3633   28.2358  -76.1440 H         1 UNK         0.1245 
    108 H108      -79.1719   29.5763  -77.3906 H         1 UNK         0.0781 
    109 H109      -77.9939   29.9401  -78.6097 H         1 UNK         0.0781 
    110 H110      -78.8768   32.3284  -75.0103 H         1 UNK         0.0836 
    111 H111      -79.7745   30.9988  -75.6844 H         1 UNK         0.0836 
    112 H112      -78.9298   27.4382  -78.3154 H         1 UNK         0.3022 
    113 H113      -79.7140   25.2674  -78.2536 H         1 UNK         0.0747 
    114 H114      -78.2975   25.4494  -80.3019 H         1 UNK         0.0793 
    115 H115      -78.8719   23.8016  -80.1156 H         1 UNK         0.0793 
    116 H116      -77.2090   24.2073  -79.6981 H         1 UNK         0.0793 
    117 H117      -77.7518   23.1570  -77.4873 H         1 UNK         0.3047 
    118 H118      -79.5477   21.3562  -75.8012 H         1 UNK         0.0822 
    119 H119      -77.1877   21.5484  -76.5132 H         1 UNK         0.0807 
    120 H120      -77.2150   21.1507  -74.8116 H         1 UNK         0.0807 
    121 H121      -76.8773   22.8039  -75.3106 H         1 UNK         0.0807 
    122 H122      -79.2790   23.5453  -73.8415 H         1 UNK         0.2946 
    123 H123      -81.1199   21.9143  -71.5114 H         1 UNK         0.1144 
    124 H124      -79.2823   20.3875  -70.8221 H         1 UNK         0.0793 
    125 H125      -79.3640   21.7669  -69.7416 H         1 UNK         0.0793 
    126 H126      -78.1068   21.6851  -70.9770 H         1 UNK         0.0793 
    127 H127      -79.0072   23.9465  -71.3058 H         1 UNK         0.2896 
@<TRIPOS>BOND
     1    1    2 1    
     2    1   67 1    
     3    1   68 1    
     4    1   69 1    
     5    2    3 2    
     6    2    4 am   BACKBONE|DICT|INTERRES
     7    4    5 1    
     8    4   70 1    
     9    5    6 1    
    10    5   65 1    
    11    5   71 1    
    12    6    7 1    
    13    6   72 1    
    14    6   73 1    
    15    7    8 1    
    16    8    9 1    
    17    8   74 1    
    18    8   75 1    
    19    9   10 ar   
    20    9   14 ar   
    21   10   11 ar   
    22   10   76 1    
    23   11   12 ar   
    24   11   48 1    
    25   12   13 ar   
    26   12   77 1    
    27   13   14 ar   
    28   13   15 1    
    29   14   78 1    
    30   15   16 1    
    31   15   79 1    
    32   15   80 1    
    33   16   17 1    
    34   17   18 1    
    35   17   81 1    
    36   17   82 1    
    37   18   19 1    
    38   18   22 1    
    39   18   83 1    
    40   19   20 am   BACKBONE|DICT|INTERRES
    41   19   21 2    
    42   20   84 1    
    43   20   85 1    
    44   22   23 am   BACKBONE|DICT|INTERRES
    45   22   86 1    
    46   23   24 2    
    47   23   25 1    
    48   25   26 1    
    49   25   27 1    
    50   25   87 1    
    51   26   88 1    
    52   26   89 1    
    53   26   90 1    
    54   27   28 am   BACKBONE|DICT|INTERRES
    55   27   91 1    
    56   28   29 2    
    57   28   30 1    
    58   30   31 1    
    59   30   32 1    
    60   30   92 1    
    61   31   93 1    
    62   31   94 1    
    63   31   95 1    
    64   32   33 am   BACKBONE|DICT|INTERRES
    65   32   96 1    
    66   33   34 2    
    67   33   35 1    
    68   35   36 1    
    69   35   37 1    
    70   35   97 1    
    71   36   98 1    
    72   36   99 1    
    73   36  100 1    
    74   37   38 am   BACKBONE|DICT|INTERRES
    75   37  101 1    
    76   38   39 2    
    77   38   40 1    
    78   40   41 1    
    79   40   42 1    
    80   40  102 1    
    81   41  103 1    
    82   41  104 1    
    83   41  105 1    
    84   42   43 am   BACKBONE|DICT|INTERRES
    85   42  106 1    
    86   43   44 2    
    87   43   45 1    
    88   45   46 1    
    89   45   49 1    
    90   45  107 1    
    91   46   47 1    
    92   46  108 1    
    93   46  109 1    
    94   47   48 1    
    95   48  110 1    
    96   48  111 1    
    97   49   50 am   BACKBONE|DICT|INTERRES
    98   49  112 1    
    99   50   51 2    
   100   50   52 1    
   101   52   53 1    
   102   52   54 1    
   103   52  113 1    
   104   53  114 1    
   105   53  115 1    
   106   53  116 1    
   107   54   55 am   BACKBONE|DICT|INTERRES
   108   54  117 1    
   109   55   56 2    
   110   55   57 1    
   111   57   58 1    
   112   57   59 1    
   113   57  118 1    
   114   58  119 1    
   115   58  120 1    
   116   58  121 1    
   117   59   60 am   BACKBONE|DICT|INTERRES
   118   59  122 1    
   119   60   61 2    
   120   60   62 1    
   121   62   63 1    
   122   62   64 1    
   123   62  123 1    
   124   63  124 1    
   125   63  125 1    
   126   63  126 1    
   127   64   65 am   BACKBONE|DICT|INTERRES
   128   64  127 1    
   129   65   66 2    
@<TRIPOS>SUBSTRUCTURE
     1 UNK         1 GROUP             0       ****    0 ROOT    
