@<TRIPOS>MOLECULE
3R135
127   129    1
SMALL
USER_CHARGES


@<TRIPOS>ATOM
      1 CA        -77.3020   23.6571  -72.8961 C.3       0 UNK        -0.1998 
      2 C         -78.5021   24.0578  -72.0523 C.2       0 UNK         0.4909 
      3 O         -78.5316   23.7740  -70.8548 O.2       0 UNK        -0.5240 
      4 N         -79.4957   24.6988  -72.6757 N.am      1 UNK        -0.4739 
      5 CA        -80.7392   25.1694  -72.0549 C.3       1 UNK         0.0864 
      6 C6        -80.9836   26.6718  -72.3557 C.3       11 UNK        -0.0881 
      7 S7        -79.8171   27.7228  -71.4308 S.3       11 UNK        -0.2682 
      8 C8        -79.8515   29.2737  -72.3881 C.3       11 UNK         0.0289 
      9 C9        -78.6014   29.4714  -73.2379 C.ar      11 UNK        -0.0687 
     10 C10       -78.7080   29.7865  -74.5969 C.ar      11 UNK        -0.0823 
     11 C11       -77.5621   30.0372  -75.3607 C.ar      11 UNK        -0.0830 
     12 C12       -76.3020   29.9647  -74.7572 C.ar      11 UNK        -0.1021 
     13 C13       -76.1835   29.6556  -73.3998 C.ar      11 UNK        -0.0753 
     14 C14       -77.3344   29.4093  -72.6480 C.ar      11 UNK        -0.0933 
     15 C15       -74.8175   29.6051  -72.7354 C.3       11 UNK         0.0166 
     16 S16       -74.4701   31.1412  -71.8269 S.3       11 UNK        -0.2615 
     17 C17       -72.8138   30.7771  -71.1484 C.3       11 UNK        -0.0865 
     18 CA        -71.6832   31.5391  -71.8887 C.3       10 UNK         0.0862 
     19 C         -70.3177   31.3684  -71.1593 C.2       10 UNK         0.5551 
     20 N         -69.2798   30.8419  -71.7982 N.am      10 UNK        -0.7319 
     21 O         -70.1974   31.7291  -69.9910 O.2       10 UNK        -0.5018 
     22 N         -71.6554   31.1978  -73.3195 N.am      10 UNK        -0.4509 
     23 C         -71.1793   31.9725  -74.2976 C.2       10 UNK         0.4899 
     24 O         -70.6901   33.0883  -74.1140 O.2       10 UNK        -0.4839 
     25 CA        -71.2530   31.3774  -75.7177 C.3       9 UNK         0.0222 
     26 CB        -70.8673   32.3970  -76.8061 C.3       9 UNK        -0.1966 
     27 N         -70.4109   30.1855  -75.8615 N.am      9 UNK        -0.4218 
     28 C         -70.6950   28.9685  -75.3813 C.2       9 UNK         0.5020 
     29 O         -71.7035   28.7062  -74.7184 O.2       9 UNK        -0.5274 
     30 CA        -69.6630   27.8699  -75.6522 C.3       8 UNK         0.0270 
     31 CB        -68.5787   27.8591  -74.5613 C.3       8 UNK        -0.1976 
     32 N         -70.3615   26.5896  -75.6532 N.am      8 UNK        -0.4313 
     33 C         -70.2209   25.6203  -76.5630 C.2       8 UNK         0.5041 
     34 O         -69.3822   25.6493  -77.4654 O.2       8 UNK        -0.5577 
     35 CA        -71.1652   24.4041  -76.4624 C.3       7 UNK         0.0284 
     36 CB        -70.3907   23.1629  -75.9873 C.3       7 UNK        -0.1958 
     37 N         -72.3333   24.5955  -75.5923 N.am      7 UNK        -0.4454 
     38 C         -73.3496   25.4346  -75.8329 C.2       7 UNK         0.5089 
     39 O         -73.4001   26.1860  -76.8097 O.2       7 UNK        -0.5125 
     40 CA        -74.4722   25.4460  -74.7759 C.3       6 UNK         0.0408 
     41 CB        -73.9869   26.1095  -73.4763 C.3       6 UNK        -0.1791 
     42 N         -75.6711   26.1464  -75.2429 N.am      6 UNK        -0.4762 
     43 C         -76.4944   25.6915  -76.1965 C.2       6 UNK         0.5007 
     44 O         -76.3827   24.5818  -76.7257 O.2       6 UNK        -0.5032 
     45 CA        -77.6106   26.6567  -76.6407 C.3       5 UNK         0.0783 
     46 C46       -77.0432   27.7659  -77.5601 C.3       11 UNK        -0.0857 
     47 S47       -78.2898   29.0600  -77.8725 S.3       11 UNK        -0.2512 
     48 C48       -77.6833   30.4250  -76.8296 C.3       11 UNK         0.0225 
     49 N         -78.6998   25.9315  -77.2997 N.am      5 UNK        -0.4615 
     50 C         -79.6255   25.2091  -76.6660 C.2       4 UNK         0.5053 
     51 O         -79.7021   25.1043  -75.4387 O.2       4 UNK        -0.5105 
     52 CA        -80.6255   24.4674  -77.5569 C.3       4 UNK         0.0263 
     53 CB        -80.0401   23.1261  -78.0365 C.3       4 UNK        -0.1981 
     54 N         -81.8391   24.2358  -76.7847 N.am      4 UNK        -0.4224 
     55 C         -83.0568   23.9805  -77.2759 C.2       3 UNK         0.4895 
     56 O         -83.3046   23.9215  -78.4818 O.2       3 UNK        -0.5091 
     57 CA        -84.1904   23.7728  -76.2479 C.3       3 UNK         0.0250 
     58 CB        -85.3218   22.8689  -76.7833 C.3       3 UNK        -0.1996 
     59 N         -83.7195   23.3037  -74.9361 N.am      3 UNK        -0.4254 
     60 C         -83.0843   22.1563  -74.6540 C.2       2 UNK         0.5004 
     61 O         -82.8249   21.2878  -75.4887 O.2       2 UNK        -0.5226 
     62 CA        -82.6286   21.9817  -73.1923 C.3       2 UNK         0.0269 
     63 CB        -82.0235   20.5908  -72.9226 C.3       2 UNK        -0.1926 
     64 N         -81.6502   23.0015  -72.8004 N.am      2 UNK        -0.4687 
     65 C         -81.9250   24.2740  -72.4775 C.2       1 UNK         0.5165 
     66 O         -83.0685   24.7338  -72.5104 O.2       1 UNK        -0.5079 
     67 H67       -77.4619   23.8667  -73.9536 H         1 UNK         0.0900 
     68 H68       -77.1050   22.5908  -72.7900 H         1 UNK         0.0900 
     69 H69       -76.4177   24.2022  -72.5690 H         1 UNK         0.0900 
     70 H70       -79.4366   24.8693  -73.6798 H         1 UNK         0.2959 
     71 H71       -80.6802   25.0556  -70.9702 H         1 UNK         0.1079 
     72 H72       -80.8960   26.8692  -73.4260 H         1 UNK         0.0837 
     73 H73       -81.9876   26.9837  -72.0620 H         1 UNK         0.0837 
     74 H74       -80.7544   29.3131  -72.9994 H         1 UNK         0.0685 
     75 H75       -79.9233   30.1073  -71.6883 H         1 UNK         0.0685 
     76 H76       -79.6826   29.8552  -75.0611 H         1 UNK         0.1434 
     77 H77       -75.4122   30.1682  -75.3379 H         1 UNK         0.1329 
     78 H78       -77.2444   29.1877  -71.5932 H         1 UNK         0.1335 
     79 H79       -74.7733   28.7585  -72.0487 H         1 UNK         0.0680 
     80 H80       -74.0398   29.4474  -73.4831 H         1 UNK         0.0680 
     81 H81       -72.6281   29.7016  -71.1681 H         1 UNK         0.1032 
     82 H82       -72.8318   31.0566  -70.0931 H         1 UNK         0.1032 
     83 H83       -71.9156   32.6035  -71.8157 H         1 UNK         0.0461 
     84 H84       -69.3671   30.5603  -72.7601 H         1 UNK         0.3453 
     85 H85       -68.4006   30.7416  -71.3158 H         1 UNK         0.3453 
     86 H86       -71.9666   30.2654  -73.5733 H         1 UNK         0.2984 
     87 H87       -72.2921   31.0890  -75.8917 H         1 UNK         0.0554 
     88 H88       -70.9967   31.9801  -77.8051 H         1 UNK         0.0847 
     89 H89       -69.8307   32.7224  -76.7092 H         1 UNK         0.0847 
     90 H90       -71.4948   33.2874  -76.7465 H         1 UNK         0.0847 
     91 H91       -69.5401   30.3144  -76.3575 H         1 UNK         0.3141 
     92 H92       -69.2036   28.0552  -76.6256 H         1 UNK         0.0743 
     93 H93       -68.0295   28.8012  -74.5424 H         1 UNK         0.0784 
     94 H94       -67.8523   27.0652  -74.7362 H         1 UNK         0.0784 
     95 H95       -69.0055   27.7079  -73.5686 H         1 UNK         0.0784 
     96 H96       -71.1334   26.5362  -75.0016 H         1 UNK         0.3213 
     97 H97       -71.5349   24.2086  -77.4714 H         1 UNK         0.0855 
     98 H98       -69.5357   22.9635  -76.6351 H         1 UNK         0.0814 
     99 H99       -71.0180   22.2713  -76.0026 H         1 UNK         0.0814 
    100 H100      -70.0074   23.2896  -74.9740 H         1 UNK         0.0814 
    101 H101      -72.3693   24.0212  -74.7619 H         1 UNK         0.3105 
    102 H102      -74.7461   24.4115  -74.5586 H         1 UNK         0.0547 
    103 H103      -73.6045   27.1128  -73.6600 H         1 UNK         0.0837 
    104 H104      -73.1807   25.5375  -73.0160 H         1 UNK         0.0837 
    105 H105      -74.7868   26.1832  -72.7394 H         1 UNK         0.0837 
    106 H106      -75.8072   27.0820  -74.8875 H         1 UNK         0.3020 
    107 H107      -78.0127   27.1212  -75.7366 H         1 UNK         0.1245 
    108 H108      -76.7274   27.3484  -78.5181 H         1 UNK         0.0781 
    109 H109      -76.1513   28.2250  -77.1296 H         1 UNK         0.0781 
    110 H110      -78.3687   31.2687  -76.9208 H         1 UNK         0.0836 
    111 H111      -76.7252   30.7706  -77.2213 H         1 UNK         0.0836 
    112 H112      -78.6901   25.9425  -78.3087 H         1 UNK         0.3022 
    113 H113      -80.8634   25.0976  -78.4167 H         1 UNK         0.0747 
    114 H114      -80.7314   22.6028  -78.6973 H         1 UNK         0.0793 
    115 H115      -79.1133   23.2766  -78.5915 H         1 UNK         0.0793 
    116 H116      -79.8156   22.4655  -77.1979 H         1 UNK         0.0793 
    117 H117      -81.7096   24.3075  -75.7837 H         1 UNK         0.3047 
    118 H118      -84.6169   24.7622  -76.0760 H         1 UNK         0.0822 
    119 H119      -86.1157   22.7476  -76.0464 H         1 UNK         0.0807 
    120 H120      -84.9560   21.8768  -77.0498 H         1 UNK         0.0807 
    121 H121      -85.7761   23.2972  -77.6777 H         1 UNK         0.0807 
    122 H122      -83.8269   23.9606  -74.1677 H         1 UNK         0.2946 
    123 H123      -83.5171   22.0842  -72.5645 H         1 UNK         0.1144 
    124 H124      -82.7311   19.8006  -73.1775 H         1 UNK         0.0793 
    125 H125      -81.7683   20.4664  -71.8701 H         1 UNK         0.0793 
    126 H126      -81.1197   20.4215  -73.5095 H         1 UNK         0.0793 
    127 H127      -80.6821   22.7146  -72.7787 H         1 UNK         0.2896 
@<TRIPOS>BOND
     1    1    2 1    
     2    1   67 1    
     3    1   68 1    
     4    1   69 1    
     5    2    3 2    
     6    2    4 am   BACKBONE|DICT|INTERRES
     7    4    5 1    
     8    4   70 1    
     9    5    6 1    
    10    5   65 1    
    11    5   71 1    
    12    6    7 1    
    13    6   72 1    
    14    6   73 1    
    15    7    8 1    
    16    8    9 1    
    17    8   74 1    
    18    8   75 1    
    19    9   10 ar   
    20    9   14 ar   
    21   10   11 ar   
    22   10   76 1    
    23   11   12 ar   
    24   11   48 1    
    25   12   13 ar   
    26   12   77 1    
    27   13   14 ar   
    28   13   15 1    
    29   14   78 1    
    30   15   16 1    
    31   15   79 1    
    32   15   80 1    
    33   16   17 1    
    34   17   18 1    
    35   17   81 1    
    36   17   82 1    
    37   18   19 1    
    38   18   22 1    
    39   18   83 1    
    40   19   20 am   BACKBONE|DICT|INTERRES
    41   19   21 2    
    42   20   84 1    
    43   20   85 1    
    44   22   23 am   BACKBONE|DICT|INTERRES
    45   22   86 1    
    46   23   24 2    
    47   23   25 1    
    48   25   26 1    
    49   25   27 1    
    50   25   87 1    
    51   26   88 1    
    52   26   89 1    
    53   26   90 1    
    54   27   28 am   BACKBONE|DICT|INTERRES
    55   27   91 1    
    56   28   29 2    
    57   28   30 1    
    58   30   31 1    
    59   30   32 1    
    60   30   92 1    
    61   31   93 1    
    62   31   94 1    
    63   31   95 1    
    64   32   33 am   BACKBONE|DICT|INTERRES
    65   32   96 1    
    66   33   34 2    
    67   33   35 1    
    68   35   36 1    
    69   35   37 1    
    70   35   97 1    
    71   36   98 1    
    72   36   99 1    
    73   36  100 1    
    74   37   38 am   BACKBONE|DICT|INTERRES
    75   37  101 1    
    76   38   39 2    
    77   38   40 1    
    78   40   41 1    
    79   40   42 1    
    80   40  102 1    
    81   41  103 1    
    82   41  104 1    
    83   41  105 1    
    84   42   43 am   BACKBONE|DICT|INTERRES
    85   42  106 1    
    86   43   44 2    
    87   43   45 1    
    88   45   46 1    
    89   45   49 1    
    90   45  107 1    
    91   46   47 1    
    92   46  108 1    
    93   46  109 1    
    94   47   48 1    
    95   48  110 1    
    96   48  111 1    
    97   49   50 am   BACKBONE|DICT|INTERRES
    98   49  112 1    
    99   50   51 2    
   100   50   52 1    
   101   52   53 1    
   102   52   54 1    
   103   52  113 1    
   104   53  114 1    
   105   53  115 1    
   106   53  116 1    
   107   54   55 am   BACKBONE|DICT|INTERRES
   108   54  117 1    
   109   55   56 2    
   110   55   57 1    
   111   57   58 1    
   112   57   59 1    
   113   57  118 1    
   114   58  119 1    
   115   58  120 1    
   116   58  121 1    
   117   59   60 am   BACKBONE|DICT|INTERRES
   118   59  122 1    
   119   60   61 2    
   120   60   62 1    
   121   62   63 1    
   122   62   64 1    
   123   62  123 1    
   124   63  124 1    
   125   63  125 1    
   126   63  126 1    
   127   64   65 am   BACKBONE|DICT|INTERRES
   128   64  127 1    
   129   65   66 2    
@<TRIPOS>SUBSTRUCTURE
     1 UNK         1 GROUP             0       ****    0 ROOT    
