@<TRIPOS>MOLECULE
3R135
127   129    1
SMALL
USER_CHARGES


@<TRIPOS>ATOM
      1 CA        -84.5376   26.8992  -75.5478 C.3       0 UNK        -0.1998 
      2 C         -83.1714   27.4938  -75.8542 C.2       0 UNK         0.4909 
      3 O         -83.0677   28.3942  -76.6872 O.2       0 UNK        -0.5240 
      4 N         -82.1198   26.9904  -75.1948 N.am      1 UNK        -0.4739 
      5 CA        -80.7328   27.4629  -75.3348 C.3       1 UNK         0.0864 
      6 C6        -79.9090   27.2565  -74.0353 C.3       11 UNK        -0.0881 
      7 S7        -80.7032   28.0467  -72.5947 S.3       11 UNK        -0.2682 
      8 C8        -79.7923   29.6264  -72.4628 C.3       11 UNK         0.0289 
      9 C9        -78.4309   29.5266  -71.7739 C.ar      11 UNK        -0.0687 
     10 C10       -78.2036   28.6090  -70.7406 C.ar      11 UNK        -0.0823 
     11 C11       -76.9695   28.5585  -70.0890 C.ar      11 UNK        -0.0830 
     12 C12       -75.9694   29.4642  -70.4414 C.ar      11 UNK        -0.1021 
     13 C13       -76.1735   30.3855  -71.4710 C.ar      11 UNK        -0.0753 
     14 C14       -77.4046   30.4086  -72.1372 C.ar      11 UNK        -0.0933 
     15 C15       -75.0676   31.3687  -71.8347 C.3       11 UNK         0.0166 
     16 S16       -73.9400   30.7157  -73.1081 S.3       11 UNK        -0.2615 
     17 C17       -73.2277   29.2564  -72.2781 C.3       11 UNK        -0.0865 
     18 CA        -71.8413   28.8585  -72.8389 C.3       10 UNK         0.0862 
     19 C         -71.2009   27.7467  -71.9645 C.2       10 UNK         0.5551 
     20 N         -71.6350   26.4987  -72.0905 N.am      10 UNK        -0.7319 
     21 O         -70.3040   28.0192  -71.1705 O.2       10 UNK        -0.5018 
     22 N         -71.9001   28.4887  -74.2605 N.am      10 UNK        -0.4509 
     23 C         -70.8255   28.3610  -75.0498 C.2       10 UNK         0.4899 
     24 O         -69.6810   28.6507  -74.6989 O.2       10 UNK        -0.4839 
     25 CA        -71.0449   27.8182  -76.4687 C.3       9 UNK         0.0222 
     26 CB        -71.0761   26.2812  -76.4427 C.3       9 UNK        -0.1966 
     27 N         -72.2847   28.3151  -77.0710 N.am      9 UNK        -0.4218 
     28 C         -72.3471   29.1176  -78.1444 C.2       9 UNK         0.5020 
     29 O         -71.3544   29.5783  -78.7108 O.2       9 UNK        -0.5274 
     30 CA        -73.7370   29.4461  -78.7259 C.3       8 UNK         0.0270 
     31 CB        -73.9832   28.6341  -80.0089 C.3       8 UNK        -0.1976 
     32 N         -74.8345   29.1934  -77.7927 N.am      8 UNK        -0.4313 
     33 C         -75.1840   30.0054  -76.7873 C.2       8 UNK         0.5041 
     34 O         -74.6856   31.1164  -76.6061 O.2       8 UNK        -0.5577 
     35 CA        -76.2690   29.4924  -75.8196 C.3       7 UNK         0.0284 
     36 CB        -77.6242   30.1389  -76.1477 C.3       7 UNK        -0.1958 
     37 N         -76.4265   28.0321  -75.7844 N.am      7 UNK        -0.4454 
     38 C         -75.4780   27.1480  -75.4525 C.2       7 UNK         0.5089 
     39 O         -74.3107   27.4640  -75.2222 O.2       7 UNK        -0.5125 
     40 CA        -75.8934   25.6661  -75.4412 C.3       6 UNK         0.0408 
     41 CB        -74.8300   24.7710  -76.1060 C.3       6 UNK        -0.1791 
     42 N         -76.2220   25.1618  -74.1032 N.am      6 UNK        -0.4762 
     43 C         -75.4477   25.1357  -73.0020 C.2       6 UNK         0.5007 
     44 O         -74.3096   25.6012  -72.9367 O.2       6 UNK        -0.5032 
     45 CA        -76.0262   24.3946  -71.7728 C.3       5 UNK         0.0783 
     46 C46       -76.7692   25.3487  -70.8063 C.3       11 UNK        -0.0857 
     47 S47       -75.6418   26.1786  -69.6386 S.3       11 UNK        -0.2512 
     48 C48       -76.7042   27.5186  -69.0122 C.3       11 UNK         0.0225 
     49 N         -76.8896   23.2783  -72.1668 N.am      5 UNK        -0.4615 
     50 C         -76.4660   22.1518  -72.7517 C.2       4 UNK         0.5053 
     51 O         -75.2810   21.8794  -72.9447 O.2       4 UNK        -0.5105 
     52 CA        -77.5479   21.1707  -73.2305 C.3       4 UNK         0.0263 
     53 CB        -78.8181   21.1648  -72.3489 C.3       4 UNK        -0.1981 
     54 N         -77.8801   21.3910  -74.6426 N.am      4 UNK        -0.4224 
     55 C         -78.4056   22.4933  -75.1985 C.2       3 UNK         0.4895 
     56 O         -78.7007   23.5169  -74.5716 O.2       3 UNK        -0.5091 
     57 CA        -78.6362   22.4385  -76.7156 C.3       3 UNK         0.0250 
     58 CB        -79.4463   21.1954  -77.1409 C.3       3 UNK        -0.1996 
     59 N         -79.3427   23.6451  -77.1340 N.am      3 UNK        -0.4254 
     60 C         -79.3055   24.1956  -78.3518 C.2       2 UNK         0.5004 
     61 O         -78.6292   23.7513  -79.2803 O.2       2 UNK        -0.5226 
     62 CA        -80.1875   25.4342  -78.5945 C.3       2 UNK         0.0269 
     63 CB        -81.3719   25.0771  -79.5086 C.3       2 UNK        -0.1926 
     64 N         -80.7116   26.0410  -77.3658 N.am      2 UNK        -0.4687 
     65 C         -80.0142   26.8528  -76.5597 C.2       1 UNK         0.5165 
     66 O         -78.8315   27.1258  -76.7566 O.2       1 UNK        -0.5079 
     67 H67       -85.2071   27.6730  -75.1732 H         1 UNK         0.0900 
     68 H68       -84.4802   26.1097  -74.7986 H         1 UNK         0.0900 
     69 H69       -84.9757   26.4779  -76.4522 H         1 UNK         0.0900 
     70 H70       -82.2636   26.2611  -74.5102 H         1 UNK         0.2959 
     71 H71       -80.7617   28.5383  -75.5253 H         1 UNK         0.1079 
     72 H72       -78.8972   27.6532  -74.1383 H         1 UNK         0.0837 
     73 H73       -79.7940   26.1921  -73.8205 H         1 UNK         0.0837 
     74 H74       -79.6912   30.0609  -73.4577 H         1 UNK         0.0685 
     75 H75       -80.4054   30.3220  -71.8887 H         1 UNK         0.0685 
     76 H76       -78.9850   27.9248  -70.4415 H         1 UNK         0.1434 
     77 H77       -75.0242   29.4371  -69.9179 H         1 UNK         0.1329 
     78 H78       -77.5688   31.1293  -72.9266 H         1 UNK         0.1335 
     79 H79       -75.5059   32.2981  -72.2011 H         1 UNK         0.0680 
     80 H80       -74.4927   31.6359  -70.9466 H         1 UNK         0.0680 
     81 H81       -73.9326   28.4261  -72.3645 H         1 UNK         0.1032 
     82 H82       -73.1369   29.4805  -71.2144 H         1 UNK         0.1032 
     83 H83       -71.1969   29.7367  -72.7596 H         1 UNK         0.0461 
     84 H84       -71.2181   25.7754  -71.5278 H         1 UNK         0.3453 
     85 H85       -72.4443   26.2828  -72.6644 H         1 UNK         0.3453 
     86 H86       -72.8100   28.1816  -74.5993 H         1 UNK         0.2984 
     87 H87       -70.1837   28.1200  -77.0682 H         1 UNK         0.0554 
     88 H88       -71.2035   25.8683  -77.4435 H         1 UNK         0.0847 
     89 H89       -71.8864   25.9060  -75.8176 H         1 UNK         0.0847 
     90 H90       -70.1448   25.8794  -76.0414 H         1 UNK         0.0847 
     91 H91       -73.1464   28.0340  -76.6115 H         1 UNK         0.3141 
     92 H92       -73.7389   30.5060  -78.9895 H         1 UNK         0.0743 
     93 H93       -73.2031   28.8250  -80.7475 H         1 UNK         0.0784 
     94 H94       -73.9905   27.5608  -79.8139 H         1 UNK         0.0784 
     95 H95       -74.9344   28.8994  -80.4709 H         1 UNK         0.0784 
     96 H96       -75.3201   28.3128  -77.8807 H         1 UNK         0.3213 
     97 H97       -75.9838   29.8034  -74.8152 H         1 UNK         0.0855 
     98 H98       -77.5532   31.2273  -76.1273 H         1 UNK         0.0814 
     99 H99       -78.3859   29.8516  -75.4249 H         1 UNK         0.0814 
    100 H100      -77.9774   29.8519  -77.1389 H         1 UNK         0.0814 
    101 H101      -77.3428   27.6756  -76.0592 H         1 UNK         0.3105 
    102 H102      -76.8043   25.5691  -76.0330 H         1 UNK         0.0547 
    103 H103      -74.5740   25.1363  -77.1013 H         1 UNK         0.0837 
    104 H104      -73.9090   24.7349  -75.5246 H         1 UNK         0.0837 
    105 H105      -75.1905   23.7485  -76.2172 H         1 UNK         0.0837 
    106 H106      -77.1328   24.7185  -74.0351 H         1 UNK         0.3020 
    107 H107      -75.1764   23.9573  -71.2427 H         1 UNK         0.1245 
    108 H108      -77.4831   24.7921  -70.1966 H         1 UNK         0.0781 
    109 H109      -77.3592   26.0795  -71.3606 H         1 UNK         0.0781 
    110 H110      -76.2134   27.9931  -68.1611 H         1 UNK         0.0836 
    111 H111      -77.6371   27.0988  -68.6324 H         1 UNK         0.0836 
    112 H112      -77.8860   23.4263  -72.0947 H         1 UNK         0.3022 
    113 H113      -77.1070   20.1744  -73.1678 H         1 UNK         0.0747 
    114 H114      -79.4886   20.3566  -72.6412 H         1 UNK         0.0793 
    115 H115      -78.5646   21.0058  -71.2998 H         1 UNK         0.0793 
    116 H116      -79.3834   22.0946  -72.4130 H         1 UNK         0.0793 
    117 H117      -77.6445   20.6242  -75.2572 H         1 UNK         0.3047 
    118 H118      -77.6543   22.4160  -77.1933 H         1 UNK         0.0822 
    119 H119      -79.6403   21.1960  -78.2137 H         1 UNK         0.0807 
    120 H120      -80.4092   21.1510  -76.6304 H         1 UNK         0.0807 
    121 H121      -78.9136   20.2702  -76.9201 H         1 UNK         0.0807 
    122 H122      -79.8582   24.1093  -76.3979 H         1 UNK         0.2946 
    123 H123      -79.5671   26.1708  -79.1108 H         1 UNK         0.1144 
    124 H124      -81.9690   25.9577  -79.7468 H         1 UNK         0.0793 
    125 H125      -82.0294   24.3386  -79.0481 H         1 UNK         0.0793 
    126 H126      -81.0245   24.6589  -80.4546 H         1 UNK         0.0793 
    127 H127      -81.6798   25.8640  -77.1401 H         1 UNK         0.2896 
@<TRIPOS>BOND
     1    1    2 1    
     2    1   67 1    
     3    1   68 1    
     4    1   69 1    
     5    2    3 2    
     6    2    4 am   BACKBONE|DICT|INTERRES
     7    4    5 1    
     8    4   70 1    
     9    5    6 1    
    10    5   65 1    
    11    5   71 1    
    12    6    7 1    
    13    6   72 1    
    14    6   73 1    
    15    7    8 1    
    16    8    9 1    
    17    8   74 1    
    18    8   75 1    
    19    9   10 ar   
    20    9   14 ar   
    21   10   11 ar   
    22   10   76 1    
    23   11   12 ar   
    24   11   48 1    
    25   12   13 ar   
    26   12   77 1    
    27   13   14 ar   
    28   13   15 1    
    29   14   78 1    
    30   15   16 1    
    31   15   79 1    
    32   15   80 1    
    33   16   17 1    
    34   17   18 1    
    35   17   81 1    
    36   17   82 1    
    37   18   19 1    
    38   18   22 1    
    39   18   83 1    
    40   19   20 am   BACKBONE|DICT|INTERRES
    41   19   21 2    
    42   20   84 1    
    43   20   85 1    
    44   22   23 am   BACKBONE|DICT|INTERRES
    45   22   86 1    
    46   23   24 2    
    47   23   25 1    
    48   25   26 1    
    49   25   27 1    
    50   25   87 1    
    51   26   88 1    
    52   26   89 1    
    53   26   90 1    
    54   27   28 am   BACKBONE|DICT|INTERRES
    55   27   91 1    
    56   28   29 2    
    57   28   30 1    
    58   30   31 1    
    59   30   32 1    
    60   30   92 1    
    61   31   93 1    
    62   31   94 1    
    63   31   95 1    
    64   32   33 am   BACKBONE|DICT|INTERRES
    65   32   96 1    
    66   33   34 2    
    67   33   35 1    
    68   35   36 1    
    69   35   37 1    
    70   35   97 1    
    71   36   98 1    
    72   36   99 1    
    73   36  100 1    
    74   37   38 am   BACKBONE|DICT|INTERRES
    75   37  101 1    
    76   38   39 2    
    77   38   40 1    
    78   40   41 1    
    79   40   42 1    
    80   40  102 1    
    81   41  103 1    
    82   41  104 1    
    83   41  105 1    
    84   42   43 am   BACKBONE|DICT|INTERRES
    85   42  106 1    
    86   43   44 2    
    87   43   45 1    
    88   45   46 1    
    89   45   49 1    
    90   45  107 1    
    91   46   47 1    
    92   46  108 1    
    93   46  109 1    
    94   47   48 1    
    95   48  110 1    
    96   48  111 1    
    97   49   50 am   BACKBONE|DICT|INTERRES
    98   49  112 1    
    99   50   51 2    
   100   50   52 1    
   101   52   53 1    
   102   52   54 1    
   103   52  113 1    
   104   53  114 1    
   105   53  115 1    
   106   53  116 1    
   107   54   55 am   BACKBONE|DICT|INTERRES
   108   54  117 1    
   109   55   56 2    
   110   55   57 1    
   111   57   58 1    
   112   57   59 1    
   113   57  118 1    
   114   58  119 1    
   115   58  120 1    
   116   58  121 1    
   117   59   60 am   BACKBONE|DICT|INTERRES
   118   59  122 1    
   119   60   61 2    
   120   60   62 1    
   121   62   63 1    
   122   62   64 1    
   123   62  123 1    
   124   63  124 1    
   125   63  125 1    
   126   63  126 1    
   127   64   65 am   BACKBONE|DICT|INTERRES
   128   64  127 1    
   129   65   66 2    
@<TRIPOS>SUBSTRUCTURE
     1 UNK         1 GROUP             0       ****    0 ROOT    
