@<TRIPOS>MOLECULE
3R135
127   129    1
SMALL
USER_CHARGES


@<TRIPOS>ATOM
      1 CA        -82.4948   24.3223  -71.7985 C.3       0 UNK        -0.1998 
      2 C         -83.4517   25.5064  -71.9191 C.2       0 UNK         0.4909 
      3 O         -84.6154   25.3645  -71.5490 O.2       0 UNK        -0.5240 
      4 N         -83.0495   26.6830  -72.4274 N.am      1 UNK        -0.4739 
      5 CA        -81.7265   27.1012  -72.9300 C.3       1 UNK         0.0864 
      6 C6        -80.5826   26.9968  -71.8845 C.3       11 UNK        -0.0881 
      7 S7        -80.8996   28.0433  -70.4216 S.3       11 UNK        -0.2682 
      8 C8        -79.2328   28.2065  -69.6894 C.3       11 UNK         0.0289 
      9 C9        -78.1647   28.6566  -70.6823 C.ar      11 UNK        -0.0687 
     10 C10       -78.4079   29.7065  -71.5752 C.ar      11 UNK        -0.0823 
     11 C11       -77.4553   30.0688  -72.5314 C.ar      11 UNK        -0.0830 
     12 C12       -76.2242   29.4058  -72.5496 C.ar      11 UNK        -0.1021 
     13 C13       -75.9633   28.3605  -71.6584 C.ar      11 UNK        -0.0753 
     14 C14       -76.9371   27.9900  -70.7286 C.ar      11 UNK        -0.0933 
     15 C15       -74.6524   27.5943  -71.7368 C.3       11 UNK         0.0166 
     16 S16       -73.3956   28.1723  -70.5446 S.3       11 UNK        -0.2615 
     17 C17       -73.1871   29.9530  -70.9267 C.3       11 UNK        -0.0865 
     18 CA        -72.1840   30.2678  -72.0695 C.3       10 UNK         0.0862 
     19 C         -70.7006   30.0285  -71.6581 C.2       10 UNK         0.5551 
     20 N         -69.9226   29.2253  -72.3749 N.am      10 UNK        -0.7319 
     21 O         -70.2398   30.6023  -70.6742 O.2       10 UNK        -0.5018 
     22 N         -72.5883   29.6086  -73.3152 N.am      10 UNK        -0.4509 
     23 C         -72.3567   30.0485  -74.5552 C.2       10 UNK         0.4899 
     24 O         -71.8263   31.1299  -74.8125 O.2       10 UNK        -0.4839 
     25 CA        -72.8079   29.1090  -75.6936 C.3       9 UNK         0.0222 
     26 CB        -72.0866   29.3976  -77.0258 C.3       9 UNK        -0.1966 
     27 N         -72.7194   27.6751  -75.3697 N.am      9 UNK        -0.4218 
     28 C         -71.6259   27.0067  -74.9668 C.2       9 UNK         0.5020 
     29 O         -70.5437   27.5385  -74.7171 O.2       9 UNK        -0.5274 
     30 CA        -71.7611   25.4866  -74.8140 C.3       8 UNK         0.0270 
     31 CB        -72.2774   25.1124  -73.4145 C.3       8 UNK        -0.1976 
     32 N         -72.6377   24.9199  -75.8420 N.am      8 UNK        -0.4313 
     33 C         -72.2062   24.5066  -77.0412 C.2       8 UNK         0.5041 
     34 O         -71.0272   24.5419  -77.3971 O.2       8 UNK        -0.5577 
     35 CA        -73.2588   23.9351  -78.0004 C.3       7 UNK         0.0284 
     36 CB        -73.7609   22.5668  -77.5082 C.3       7 UNK        -0.1958 
     37 N         -74.3984   24.8288  -78.2042 N.am      7 UNK        -0.4454 
     38 C         -74.3836   25.9276  -78.9714 C.2       7 UNK         0.5089 
     39 O         -73.3754   26.3660  -79.5250 O.2       7 UNK        -0.5125 
     40 CA        -75.7271   26.6472  -79.1733 C.3       6 UNK         0.0408 
     41 CB        -76.6603   25.8301  -80.0832 C.3       6 UNK        -0.1791 
     42 N         -76.3825   26.9013  -77.8897 N.am      6 UNK        -0.4762 
     43 C         -76.2855   28.0535  -77.2101 C.2       6 UNK         0.5007 
     44 O         -75.7309   29.0529  -77.6665 O.2       6 UNK        -0.5032 
     45 CA        -76.8665   28.1054  -75.7747 C.3       5 UNK         0.0783 
     46 C46       -77.9731   29.1814  -75.6027 C.3       11 UNK        -0.0857 
     47 S47       -77.2552   30.8278  -75.2505 S.3       11 UNK        -0.2512 
     48 C48       -77.7830   31.1738  -73.5337 C.3       11 UNK         0.0225 
     49 N         -77.2792   26.7939  -75.2601 N.am      5 UNK        -0.4615 
     50 C         -76.4107   25.8481  -74.8774 C.2       4 UNK         0.5053 
     51 O         -75.1872   25.9826  -74.9471 O.2       4 UNK        -0.5105 
     52 CA        -76.9981   24.5099  -74.4034 C.3       4 UNK         0.0263 
     53 CB        -77.5717   24.6402  -72.9844 C.3       4 UNK        -0.1981 
     54 N         -78.0209   23.9703  -75.3062 N.am      4 UNK        -0.4224 
     55 C         -77.8391   23.6790  -76.6014 C.2       3 UNK         0.4895 
     56 O         -76.7796   23.8717  -77.1935 O.2       3 UNK        -0.5091 
     57 CA        -79.0325   23.1178  -77.3946 C.3       3 UNK         0.0250 
     58 CB        -79.2365   21.6150  -77.1194 C.3       3 UNK        -0.1996 
     59 N         -80.2691   23.8927  -77.2254 N.am      3 UNK        -0.4254 
     60 C         -81.0174   24.0256  -76.1231 C.2       2 UNK         0.5004 
     61 O         -80.8259   23.4042  -75.0742 O.2       2 UNK        -0.5226 
     62 CA        -82.1491   25.0645  -76.1972 C.3       2 UNK         0.0269 
     63 CB        -83.4794   24.3829  -76.5547 C.3       2 UNK        -0.1926 
     64 N         -82.3108   25.8002  -74.9402 N.am      2 UNK        -0.4687 
     65 C         -81.3490   26.4791  -74.2946 C.2       1 UNK         0.5165 
     66 O         -80.2090   26.6344  -74.7418 O.2       1 UNK        -0.5079 
     67 H67       -81.7372   24.3012  -72.5786 H         1 UNK         0.0900 
     68 H68       -83.0491   23.3868  -71.8699 H         1 UNK         0.0900 
     69 H69       -81.9985   24.3396  -70.8288 H         1 UNK         0.0900 
     70 H70       -83.7435   27.4168  -72.4717 H         1 UNK         0.2959 
     71 H71       -81.8382   28.1627  -73.1585 H         1 UNK         0.1079 
     72 H72       -79.6472   27.3182  -72.3416 H         1 UNK         0.0837 
     73 H73       -80.4082   25.9732  -71.5580 H         1 UNK         0.0837 
     74 H74       -79.2765   28.9247  -68.8698 H         1 UNK         0.0685 
     75 H75       -78.9624   27.2469  -69.2460 H         1 UNK         0.0685 
     76 H76       -79.3595   30.2194  -71.5452 H         1 UNK         0.1434 
     77 H77       -75.4736   29.6949  -73.2709 H         1 UNK         0.1329 
     78 H78       -76.7402   27.1720  -70.0491 H         1 UNK         0.1335 
     79 H79       -74.2598   27.6280  -72.7515 H         1 UNK         0.0680 
     80 H80       -74.8439   26.5386  -71.5397 H         1 UNK         0.0680 
     81 H81       -74.1557   30.3951  -71.1548 H         1 UNK         0.1032 
     82 H82       -72.8736   30.4537  -70.0088 H         1 UNK         0.1032 
     83 H83       -72.2504   31.3437  -72.2427 H         1 UNK         0.0461 
     84 H84       -68.9648   29.0931  -72.0926 H         1 UNK         0.3453 
     85 H85       -70.2712   28.7476  -73.1999 H         1 UNK         0.3453 
     86 H86       -72.9768   28.6861  -73.2022 H         1 UNK         0.2984 
     87 H87       -73.8648   29.3254  -75.8393 H         1 UNK         0.0554 
     88 H88       -72.4582   28.7529  -77.8229 H         1 UNK         0.0847 
     89 H89       -71.0101   29.2443  -76.9431 H         1 UNK         0.0847 
     90 H90       -72.2476   30.4277  -77.3459 H         1 UNK         0.0847 
     91 H91       -73.5725   27.1365  -75.4803 H         1 UNK         0.3141 
     92 H92       -70.7604   25.0603  -74.9149 H         1 UNK         0.0743 
     93 H93       -72.2517   24.0332  -73.2635 H         1 UNK         0.0784 
     94 H94       -71.6596   25.5624  -72.6358 H         1 UNK         0.0784 
     95 H95       -73.3010   25.4436  -73.2499 H         1 UNK         0.0784 
     96 H96       -73.6331   24.9188  -75.6428 H         1 UNK         0.3213 
     97 H97       -72.7741   23.7817  -78.9674 H         1 UNK         0.0855 
     98 H98       -72.9305   21.8746  -77.3627 H         1 UNK         0.0814 
     99 H99       -74.4391   22.1120  -78.2305 H         1 UNK         0.0814 
    100 H100      -74.2923   22.6448  -76.5588 H         1 UNK         0.0814 
    101 H101      -75.2852   24.5225  -77.8035 H         1 UNK         0.3105 
    102 H102      -75.5249   27.5908  -79.6848 H         1 UNK         0.0547 
    103 H103      -76.1946   25.6496  -81.0529 H         1 UNK         0.0837 
    104 H104      -76.9075   24.8576  -79.6579 H         1 UNK         0.0837 
    105 H105      -77.5944   26.3605  -80.2680 H         1 UNK         0.0837 
    106 H106      -76.8129   26.1077  -77.4339 H         1 UNK         0.3020 
    107 H107      -76.0238   28.4068  -75.1521 H         1 UNK         0.1245 
    108 H108      -78.6392   28.9173  -74.7799 H         1 UNK         0.0781 
    109 H109      -78.6117   29.2438  -76.4857 H         1 UNK         0.0781 
    110 H110      -78.8564   31.3694  -73.5464 H         1 UNK         0.0836 
    111 H111      -77.3074   32.0973  -73.2016 H         1 UNK         0.0836 
    112 H112      -78.2782   26.6271  -75.1688 H         1 UNK         0.3022 
    113 H113      -76.1786   23.7890  -74.3730 H         1 UNK         0.0747 
    114 H114      -77.8847   23.6722  -72.5929 H         1 UNK         0.0793 
    115 H115      -76.8290   25.0445  -72.2953 H         1 UNK         0.0793 
    116 H116      -78.4345   25.3045  -72.9611 H         1 UNK         0.0793 
    117 H117      -78.9461   23.7997  -74.9205 H         1 UNK         0.3047 
    118 H118      -78.7728   23.2156  -78.4502 H         1 UNK         0.0822 
    119 H119      -79.4583   21.4119  -76.0715 H         1 UNK         0.0807 
    120 H120      -78.3372   21.0513  -77.3715 H         1 UNK         0.0807 
    121 H121      -80.0514   21.2097  -77.7190 H         1 UNK         0.0807 
    122 H122      -80.5188   24.4571  -78.0262 H         1 UNK         0.2946 
    123 H123      -81.9061   25.7955  -76.9715 H         1 UNK         0.1144 
    124 H124      -83.4026   23.8447  -77.5005 H         1 UNK         0.0793 
    125 H125      -83.7787   23.6614  -75.7931 H         1 UNK         0.0793 
    126 H126      -84.2838   25.1108  -76.6631 H         1 UNK         0.0793 
    127 H127      -83.2140   25.7356  -74.4940 H         1 UNK         0.2896 
@<TRIPOS>BOND
     1    1    2 1    
     2    1   67 1    
     3    1   68 1    
     4    1   69 1    
     5    2    3 2    
     6    2    4 am   BACKBONE|DICT|INTERRES
     7    4    5 1    
     8    4   70 1    
     9    5    6 1    
    10    5   65 1    
    11    5   71 1    
    12    6    7 1    
    13    6   72 1    
    14    6   73 1    
    15    7    8 1    
    16    8    9 1    
    17    8   74 1    
    18    8   75 1    
    19    9   10 ar   
    20    9   14 ar   
    21   10   11 ar   
    22   10   76 1    
    23   11   12 ar   
    24   11   48 1    
    25   12   13 ar   
    26   12   77 1    
    27   13   14 ar   
    28   13   15 1    
    29   14   78 1    
    30   15   16 1    
    31   15   79 1    
    32   15   80 1    
    33   16   17 1    
    34   17   18 1    
    35   17   81 1    
    36   17   82 1    
    37   18   19 1    
    38   18   22 1    
    39   18   83 1    
    40   19   20 am   BACKBONE|DICT|INTERRES
    41   19   21 2    
    42   20   84 1    
    43   20   85 1    
    44   22   23 am   BACKBONE|DICT|INTERRES
    45   22   86 1    
    46   23   24 2    
    47   23   25 1    
    48   25   26 1    
    49   25   27 1    
    50   25   87 1    
    51   26   88 1    
    52   26   89 1    
    53   26   90 1    
    54   27   28 am   BACKBONE|DICT|INTERRES
    55   27   91 1    
    56   28   29 2    
    57   28   30 1    
    58   30   31 1    
    59   30   32 1    
    60   30   92 1    
    61   31   93 1    
    62   31   94 1    
    63   31   95 1    
    64   32   33 am   BACKBONE|DICT|INTERRES
    65   32   96 1    
    66   33   34 2    
    67   33   35 1    
    68   35   36 1    
    69   35   37 1    
    70   35   97 1    
    71   36   98 1    
    72   36   99 1    
    73   36  100 1    
    74   37   38 am   BACKBONE|DICT|INTERRES
    75   37  101 1    
    76   38   39 2    
    77   38   40 1    
    78   40   41 1    
    79   40   42 1    
    80   40  102 1    
    81   41  103 1    
    82   41  104 1    
    83   41  105 1    
    84   42   43 am   BACKBONE|DICT|INTERRES
    85   42  106 1    
    86   43   44 2    
    87   43   45 1    
    88   45   46 1    
    89   45   49 1    
    90   45  107 1    
    91   46   47 1    
    92   46  108 1    
    93   46  109 1    
    94   47   48 1    
    95   48  110 1    
    96   48  111 1    
    97   49   50 am   BACKBONE|DICT|INTERRES
    98   49  112 1    
    99   50   51 2    
   100   50   52 1    
   101   52   53 1    
   102   52   54 1    
   103   52  113 1    
   104   53  114 1    
   105   53  115 1    
   106   53  116 1    
   107   54   55 am   BACKBONE|DICT|INTERRES
   108   54  117 1    
   109   55   56 2    
   110   55   57 1    
   111   57   58 1    
   112   57   59 1    
   113   57  118 1    
   114   58  119 1    
   115   58  120 1    
   116   58  121 1    
   117   59   60 am   BACKBONE|DICT|INTERRES
   118   59  122 1    
   119   60   61 2    
   120   60   62 1    
   121   62   63 1    
   122   62   64 1    
   123   62  123 1    
   124   63  124 1    
   125   63  125 1    
   126   63  126 1    
   127   64   65 am   BACKBONE|DICT|INTERRES
   128   64  127 1    
   129   65   66 2    
@<TRIPOS>SUBSTRUCTURE
     1 UNK         1 GROUP             0       ****    0 ROOT    
