@<TRIPOS>MOLECULE
3R135
127   129    1
SMALL
USER_CHARGES


@<TRIPOS>ATOM
      1 CA        -83.6747   25.7282  -75.0044 C.3       0 UNK        -0.1998 
      2 C         -82.6775   26.8653  -74.8493 C.2       0 UNK         0.4909 
      3 O         -82.3261   27.5124  -75.8362 O.2       0 UNK        -0.5240 
      4 N         -82.2059   27.1174  -73.6220 N.am      1 UNK        -0.4739 
      5 CA        -81.2061   28.1443  -73.3152 C.3       1 UNK         0.0864 
      6 C6        -81.0961   28.4483  -71.7988 C.3       11 UNK        -0.0881 
      7 S7        -81.0289   26.9830  -70.7071 S.3       11 UNK        -0.2682 
      8 C8        -80.0224   27.6061  -69.3216 C.3       11 UNK         0.0289 
      9 C9        -78.5458   27.6103  -69.6795 C.ar      11 UNK        -0.0687 
     10 C10       -77.8195   26.4186  -69.6338 C.ar      11 UNK        -0.0823 
     11 C11       -76.4837   26.3857  -70.0410 C.ar      11 UNK        -0.0830 
     12 C12       -75.8648   27.5621  -70.4749 C.ar      11 UNK        -0.1021 
     13 C13       -76.5815   28.7618  -70.5153 C.ar      11 UNK        -0.0753 
     14 C14       -77.9159   28.7847  -70.1000 C.ar      11 UNK        -0.0933 
     15 C15       -75.9471   30.0151  -71.0911 C.3       11 UNK         0.0166 
     16 S16       -76.3318   30.0997  -72.8615 S.3       11 UNK        -0.2615 
     17 C17       -75.5482   31.6654  -73.3792 C.3       11 UNK        -0.0865 
     18 CA        -74.1465   31.4996  -74.0365 C.3       10 UNK         0.0862 
     19 C         -72.9816   31.4879  -73.0022 C.2       10 UNK         0.5551 
     20 N         -71.9265   30.7049  -73.1935 N.am      10 UNK        -0.7319 
     21 O         -73.0190   32.2181  -72.0149 O.2       10 UNK        -0.5018 
     22 N         -74.1116   30.3552  -74.9608 N.am      10 UNK        -0.4509 
     23 C         -73.7370   30.3678  -76.2428 C.2       10 UNK         0.4899 
     24 O         -73.4499   31.3899  -76.8678 O.2       10 UNK        -0.4839 
     25 CA        -73.6510   28.9833  -76.9232 C.3       9 UNK         0.0222 
     26 CB        -72.8916   29.0235  -78.2652 C.3       9 UNK        -0.1966 
     27 N         -73.0884   27.9399  -76.0511 N.am      9 UNK        -0.4218 
     28 C         -71.9076   27.9714  -75.4089 C.2       9 UNK         0.5020 
     29 O         -71.1250   28.9213  -75.4438 O.2       9 UNK        -0.5274 
     30 CA        -71.5487   26.7480  -74.5565 C.3       8 UNK         0.0270 
     31 CB        -72.2942   26.7928  -73.2106 C.3       8 UNK        -0.1976 
     32 N         -71.8590   25.5067  -75.2665 N.am      8 UNK        -0.4313 
     33 C         -71.0089   24.8730  -76.0881 C.2       8 UNK         0.5041 
     34 O         -69.8448   25.2297  -76.2756 O.2       8 UNK        -0.5577 
     35 CA        -71.5304   23.6243  -76.8250 C.3       7 UNK         0.0284 
     36 CB        -71.1557   22.3496  -76.0513 C.3       7 UNK        -0.1958 
     37 N         -72.9779   23.6472  -77.0429 N.am      7 UNK        -0.4454 
     38 C         -73.6054   24.4502  -77.9136 C.2       7 UNK         0.5089 
     39 O         -73.0224   25.1879  -78.7076 O.2       7 UNK        -0.5125 
     40 CA        -75.1448   24.4546  -77.8688 C.3       6 UNK         0.0408 
     41 CB        -75.7224   23.5311  -78.9520 C.3       6 UNK        -0.1791 
     42 N         -75.7120   24.0841  -76.5653 N.am      6 UNK        -0.4762 
     43 C         -75.5140   24.7445  -75.4146 C.2       6 UNK         0.5007 
     44 O         -74.7881   25.7371  -75.3204 O.2       6 UNK        -0.5032 
     45 CA        -76.2258   24.1785  -74.1707 C.3       5 UNK         0.0783 
     46 C46       -75.8245   24.9069  -72.8665 C.3       11 UNK        -0.0857 
     47 S47       -76.3590   23.9816  -71.3909 S.3       11 UNK        -0.2512 
     48 C48       -75.7360   25.0626  -70.0642 C.3       11 UNK         0.0225 
     49 N         -77.6742   24.1969  -74.3915 N.am      5 UNK        -0.4615 
     50 C         -78.3667   23.1888  -74.9357 C.2       4 UNK         0.5053 
     51 O         -77.8640   22.1145  -75.2663 O.2       4 UNK        -0.5105 
     52 CA        -79.8483   23.4531  -75.2271 C.3       4 UNK         0.0263 
     53 CB        -80.6687   23.5641  -73.9303 C.3       4 UNK        -0.1981 
     54 N         -79.9891   24.6656  -76.0349 N.am      4 UNK        -0.4224 
     55 C         -79.7879   24.7082  -77.3622 C.2       3 UNK         0.4895 
     56 O         -79.5708   23.7105  -78.0503 O.2       3 UNK        -0.5091 
     57 CA        -79.8296   26.0830  -78.0519 C.3       3 UNK         0.0250 
     58 CB        -81.1829   26.2995  -78.7487 C.3       3 UNK        -0.1996 
     59 N         -79.5651   27.1830  -77.1205 N.am      3 UNK        -0.4254 
     60 C         -78.3293   27.5647  -76.7594 C.2       2 UNK         0.5004 
     61 O         -77.3063   27.1049  -77.2612 O.2       2 UNK        -0.5226 
     62 CA        -78.1880   28.6320  -75.6587 C.3       2 UNK         0.0269 
     63 CB        -77.8506   29.9949  -76.2861 C.3       2 UNK        -0.1926 
     64 N         -79.3687   28.7775  -74.8020 N.am      2 UNK        -0.4687 
     65 C         -79.8544   27.8257  -73.9932 C.2       1 UNK         0.5165 
     66 O         -79.3277   26.7182  -73.8536 O.2       1 UNK        -0.5079 
     67 H67       -84.6199   26.1098  -75.3893 H         1 UNK         0.0900 
     68 H68       -83.2933   24.9898  -75.7093 H         1 UNK         0.0900 
     69 H69       -83.8707   25.2265  -74.0570 H         1 UNK         0.0900 
     70 H70       -82.4869   26.5447  -72.8382 H         1 UNK         0.2959 
     71 H71       -81.5772   29.0638  -73.7747 H         1 UNK         0.1079 
     72 H72       -81.9690   29.0263  -71.4912 H         1 UNK         0.0837 
     73 H73       -80.2429   29.0998  -71.6095 H         1 UNK         0.0837 
     74 H74       -80.1844   26.9674  -68.4521 H         1 UNK         0.0685 
     75 H75       -80.3599   28.6038  -69.0362 H         1 UNK         0.0685 
     76 H76       -78.3086   25.5041  -69.3264 H         1 UNK         0.1434 
     77 H77       -74.8404   27.5377  -70.8211 H         1 UNK         0.1329 
     78 H78       -78.4748   29.7088  -70.1515 H         1 UNK         0.1335 
     79 H79       -74.8657   30.0023  -70.9463 H         1 UNK         0.0680 
     80 H80       -76.3272   30.9034  -70.5844 H         1 UNK         0.0680 
     81 H81       -75.5315   32.3698  -72.5456 H         1 UNK         0.1032 
     82 H82       -76.2168   32.1203  -74.1108 H         1 UNK         0.1032 
     83 H83       -73.9701   32.4115  -74.6094 H         1 UNK         0.0461 
     84 H84       -71.8258   30.1539  -74.0383 H         1 UNK         0.3453 
     85 H85       -71.1799   30.7223  -72.5177 H         1 UNK         0.3453 
     86 H86       -74.3291   29.4660  -74.5350 H         1 UNK         0.2984 
     87 H87       -74.6780   28.6805  -77.1333 H         1 UNK         0.0554 
     88 H88       -73.3679   29.7103  -78.9659 H         1 UNK         0.0847 
     89 H89       -72.8729   28.0415  -78.7382 H         1 UNK         0.0847 
     90 H90       -71.8600   29.3524  -78.1350 H         1 UNK         0.0847 
     91 H91       -73.6894   27.1323  -75.8960 H         1 UNK         0.3141 
     92 H92       -70.4779   26.7848  -74.3437 H         1 UNK         0.0743 
     93 H93       -72.0855   25.9076  -72.6097 H         1 UNK         0.0784 
     94 H94       -71.9833   27.6603  -72.6269 H         1 UNK         0.0784 
     95 H95       -73.3738   26.8664  -73.3401 H         1 UNK         0.0784 
     96 H96       -72.8206   25.1922  -75.2215 H         1 UNK         0.3213 
     97 H97       -71.0390   23.5894  -77.8000 H         1 UNK         0.0855 
     98 H98       -71.6251   22.3194  -75.0671 H         1 UNK         0.0814 
     99 H99       -70.0770   22.2903  -75.8988 H         1 UNK         0.0814 
    100 H100      -71.4532   21.4526  -76.5948 H         1 UNK         0.0814 
    101 H101      -73.5425   23.0527  -76.4541 H         1 UNK         0.3105 
    102 H102      -75.4631   25.4743  -78.0893 H         1 UNK         0.0547 
    103 H103      -75.4642   22.4866  -78.7737 H         1 UNK         0.0837 
    104 H104      -75.3396   23.7986  -79.9379 H         1 UNK         0.0837 
    105 H105      -76.8092   23.6066  -78.9980 H         1 UNK         0.0837 
    106 H106      -76.3332   23.2845  -76.5505 H         1 UNK         0.3020 
    107 H107      -75.8838   23.1450  -74.0752 H         1 UNK         0.1245 
    108 H108      -76.2430   25.9152  -72.8452 H         1 UNK         0.0781 
    109 H109      -74.7409   25.0122  -72.7982 H         1 UNK         0.0781 
    110 H110      -74.6636   25.2186  -70.1923 H         1 UNK         0.0836 
    111 H111      -75.8615   24.5586  -69.1049 H         1 UNK         0.0836 
    112 H112      -78.1569   25.0600  -74.1602 H         1 UNK         0.3022 
    113 H113      -80.2372   22.6026  -75.7916 H         1 UNK         0.0747 
    114 H114      -81.7309   23.6749  -74.1434 H         1 UNK         0.0793 
    115 H115      -80.5563   22.6639  -73.3247 H         1 UNK         0.0793 
    116 H116      -80.3607   24.4070  -73.3118 H         1 UNK         0.0793 
    117 H117      -80.0912   25.5361  -75.5290 H         1 UNK         0.3047 
    118 H118      -79.0579   26.0830  -78.8252 H         1 UNK         0.0822 
    119 H119      -81.2349   27.2793  -79.2234 H         1 UNK         0.0807 
    120 H120      -82.0190   26.2161  -78.0548 H         1 UNK         0.0807 
    121 H121      -81.3386   25.5531  -79.5288 H         1 UNK         0.0807 
    122 H122      -80.3720   27.6034  -76.6710 H         1 UNK         0.2946 
    123 H123      -77.3535   28.3217  -75.0257 H         1 UNK         0.1144 
    124 H124      -77.6918   30.7571  -75.5244 H         1 UNK         0.0793 
    125 H125      -78.6454   30.3425  -76.9472 H         1 UNK         0.0793 
    126 H126      -76.9364   29.9368  -76.8781 H         1 UNK         0.0793 
    127 H127      -79.8705   29.6502  -74.8838 H         1 UNK         0.2896 
@<TRIPOS>BOND
     1    1    2 1    
     2    1   67 1    
     3    1   68 1    
     4    1   69 1    
     5    2    3 2    
     6    2    4 am   BACKBONE|DICT|INTERRES
     7    4    5 1    
     8    4   70 1    
     9    5    6 1    
    10    5   65 1    
    11    5   71 1    
    12    6    7 1    
    13    6   72 1    
    14    6   73 1    
    15    7    8 1    
    16    8    9 1    
    17    8   74 1    
    18    8   75 1    
    19    9   10 ar   
    20    9   14 ar   
    21   10   11 ar   
    22   10   76 1    
    23   11   12 ar   
    24   11   48 1    
    25   12   13 ar   
    26   12   77 1    
    27   13   14 ar   
    28   13   15 1    
    29   14   78 1    
    30   15   16 1    
    31   15   79 1    
    32   15   80 1    
    33   16   17 1    
    34   17   18 1    
    35   17   81 1    
    36   17   82 1    
    37   18   19 1    
    38   18   22 1    
    39   18   83 1    
    40   19   20 am   BACKBONE|DICT|INTERRES
    41   19   21 2    
    42   20   84 1    
    43   20   85 1    
    44   22   23 am   BACKBONE|DICT|INTERRES
    45   22   86 1    
    46   23   24 2    
    47   23   25 1    
    48   25   26 1    
    49   25   27 1    
    50   25   87 1    
    51   26   88 1    
    52   26   89 1    
    53   26   90 1    
    54   27   28 am   BACKBONE|DICT|INTERRES
    55   27   91 1    
    56   28   29 2    
    57   28   30 1    
    58   30   31 1    
    59   30   32 1    
    60   30   92 1    
    61   31   93 1    
    62   31   94 1    
    63   31   95 1    
    64   32   33 am   BACKBONE|DICT|INTERRES
    65   32   96 1    
    66   33   34 2    
    67   33   35 1    
    68   35   36 1    
    69   35   37 1    
    70   35   97 1    
    71   36   98 1    
    72   36   99 1    
    73   36  100 1    
    74   37   38 am   BACKBONE|DICT|INTERRES
    75   37  101 1    
    76   38   39 2    
    77   38   40 1    
    78   40   41 1    
    79   40   42 1    
    80   40  102 1    
    81   41  103 1    
    82   41  104 1    
    83   41  105 1    
    84   42   43 am   BACKBONE|DICT|INTERRES
    85   42  106 1    
    86   43   44 2    
    87   43   45 1    
    88   45   46 1    
    89   45   49 1    
    90   45  107 1    
    91   46   47 1    
    92   46  108 1    
    93   46  109 1    
    94   47   48 1    
    95   48  110 1    
    96   48  111 1    
    97   49   50 am   BACKBONE|DICT|INTERRES
    98   49  112 1    
    99   50   51 2    
   100   50   52 1    
   101   52   53 1    
   102   52   54 1    
   103   52  113 1    
   104   53  114 1    
   105   53  115 1    
   106   53  116 1    
   107   54   55 am   BACKBONE|DICT|INTERRES
   108   54  117 1    
   109   55   56 2    
   110   55   57 1    
   111   57   58 1    
   112   57   59 1    
   113   57  118 1    
   114   58  119 1    
   115   58  120 1    
   116   58  121 1    
   117   59   60 am   BACKBONE|DICT|INTERRES
   118   59  122 1    
   119   60   61 2    
   120   60   62 1    
   121   62   63 1    
   122   62   64 1    
   123   62  123 1    
   124   63  124 1    
   125   63  125 1    
   126   63  126 1    
   127   64   65 am   BACKBONE|DICT|INTERRES
   128   64  127 1    
   129   65   66 2    
@<TRIPOS>SUBSTRUCTURE
     1 UNK         1 GROUP             0       ****    0 ROOT    
