@<TRIPOS>MOLECULE
3R135
127   129    1
SMALL
USER_CHARGES


@<TRIPOS>ATOM
      1 CA        -82.5164   22.9423  -72.2257 C.3       0 UNK        -0.1998 
      2 C         -82.3134   24.2862  -72.9080 C.2       0 UNK         0.4909 
      3 O         -82.1592   24.3444  -74.1299 O.2       0 UNK        -0.5240 
      4 N         -82.3224   25.3684  -72.1198 N.am      1 UNK        -0.4739 
      5 CA        -82.1631   26.7517  -72.5794 C.3       1 UNK         0.0864 
      6 C6        -82.4902   27.7857  -71.4709 C.3       11 UNK        -0.0881 
      7 S7        -81.6161   27.5184  -69.8900 S.3       11 UNK        -0.2682 
      8 C8        -80.7199   29.0920  -69.6697 C.3       11 UNK         0.0289 
      9 C9        -79.3699   29.1221  -70.3773 C.ar      11 UNK        -0.0687 
     10 C10       -78.4211   28.1301  -70.1143 C.ar      11 UNK        -0.0823 
     11 C11       -77.1512   28.1880  -70.6916 C.ar      11 UNK        -0.0830 
     12 C12       -76.8218   29.2596  -71.5257 C.ar      11 UNK        -0.1021 
     13 C13       -77.7587   30.2607  -71.8023 C.ar      11 UNK        -0.0753 
     14 C14       -79.0361   30.1783  -71.2329 C.ar      11 UNK        -0.0933 
     15 C15       -77.3783   31.4657  -72.6572 C.3       11 UNK         0.0166 
     16 S16       -77.0048   31.0323  -74.3879 S.3       11 UNK        -0.2615 
     17 C17       -75.1853   30.8848  -74.3776 C.3       11 UNK        -0.0865 
     18 CA        -74.6645   29.7207  -75.2766 C.3       10 UNK         0.0862 
     19 C         -74.3760   30.1635  -76.7440 C.2       10 UNK         0.5551 
     20 N         -73.2621   29.7676  -77.3505 N.am      10 UNK        -0.7319 
     21 O         -75.1834   30.8564  -77.3566 O.2       10 UNK        -0.5018 
     22 N         -73.5816   28.9467  -74.6449 N.am      10 UNK        -0.4509 
     23 C         -72.4298   29.4254  -74.1564 C.2       10 UNK         0.4899 
     24 O         -72.1209   30.6164  -74.1648 O.2       10 UNK        -0.4839 
     25 CA        -71.4533   28.4047  -73.5585 C.3       9 UNK         0.0222 
     26 CB        -71.8392   28.0615  -72.1077 C.3       9 UNK        -0.1966 
     27 N         -71.3683   27.1851  -74.3661 N.am      9 UNK        -0.4218 
     28 C         -70.2878   26.3978  -74.4450 C.2       9 UNK         0.5020 
     29 O         -69.2423   26.5966  -73.8238 O.2       9 UNK        -0.5274 
     30 CA        -70.3832   25.1818  -75.3823 C.3       8 UNK         0.0270 
     31 CB        -71.1180   24.0197  -74.6936 C.3       8 UNK        -0.1976 
     32 N         -71.0402   25.4903  -76.6540 N.am      8 UNK        -0.4313 
     33 C         -70.5494   26.2886  -77.6106 C.2       8 UNK         0.5041 
     34 O         -69.4493   26.8373  -77.5384 O.2       8 UNK        -0.5577 
     35 CA        -71.4233   26.5416  -78.8564 C.3       7 UNK         0.0284 
     36 CB        -71.1147   25.5190  -79.9679 C.3       7 UNK        -0.1958 
     37 N         -72.8675   26.6353  -78.5874 N.am      7 UNK        -0.4454 
     38 C         -73.7058   25.6776  -78.1707 C.2       7 UNK         0.5089 
     39 O         -73.3830   24.5014  -77.9909 O.2       7 UNK        -0.5125 
     40 CA        -75.1378   26.1328  -77.8488 C.3       6 UNK         0.0408 
     41 CB        -76.0943   25.7271  -78.9795 C.3       6 UNK        -0.1791 
     42 N         -75.6331   25.6045  -76.5734 N.am      6 UNK        -0.4762 
     43 C         -75.0244   25.7208  -75.3830 C.2       6 UNK         0.5007 
     44 O         -73.9268   26.2642  -75.2345 O.2       6 UNK        -0.5032 
     45 CA        -75.7477   25.1872  -74.1299 C.3       5 UNK         0.0783 
     46 C46       -75.9100   26.3081  -73.0768 C.3       11 UNK        -0.0857 
     47 S47       -76.4043   25.6415  -71.4556 S.3       11 UNK        -0.2512 
     48 C48       -76.1347   27.0960  -70.3980 C.3       11 UNK         0.0225 
     49 N         -77.0383   24.5657  -74.4393 N.am      5 UNK        -0.4615 
     50 C         -77.2083   23.2790  -74.7610 C.2       4 UNK         0.5053 
     51 O         -76.2877   22.4677  -74.8578 O.2       4 UNK        -0.5105 
     52 CA        -78.6523   22.8204  -75.0228 C.3       4 UNK         0.0263 
     53 CB        -79.3068   22.3547  -73.7149 C.3       4 UNK        -0.1981 
     54 N         -79.4786   23.8590  -75.6485 N.am      4 UNK        -0.4224 
     55 C         -79.3103   24.2763  -76.9121 C.2       3 UNK         0.4895 
     56 O         -78.4726   23.8042  -77.6801 O.2       3 UNK        -0.5091 
     57 CA        -80.2048   25.4262  -77.3992 C.3       3 UNK         0.0250 
     58 CB        -81.6005   24.9092  -77.7829 C.3       3 UNK        -0.1996 
     59 N         -80.3305   26.5054  -76.4187 N.am      3 UNK        -0.4254 
     60 C         -79.3334   27.3188  -76.0370 C.2       2 UNK         0.5004 
     61 O         -78.1897   27.2534  -76.4804 O.2       2 UNK        -0.5226 
     62 CA        -79.6645   28.3927  -74.9858 C.3       2 UNK         0.0269 
     63 CB        -79.9734   29.7293  -75.6792 C.3       2 UNK        -0.1926 
     64 N         -80.7960   28.0363  -74.1290 N.am      2 UNK        -0.4687 
     65 C         -80.8027   27.0184  -73.2586 C.2       1 UNK         0.5165 
     66 O         -79.8231   26.3025  -73.0327 O.2       1 UNK        -0.5079 
     67 H67       -81.5879   22.6036  -71.7676 H         1 UNK         0.0900 
     68 H68       -82.8373   22.1907  -72.9468 H         1 UNK         0.0900 
     69 H69       -83.2783   23.0094  -71.4493 H         1 UNK         0.0900 
     70 H70       -82.4007   25.2578  -71.1187 H         1 UNK         0.2959 
     71 H71       -82.9148   26.8830  -73.3615 H         1 UNK         0.1079 
     72 H72       -82.3180   28.8031  -71.8268 H         1 UNK         0.0837 
     73 H73       -83.5582   27.7408  -71.2523 H         1 UNK         0.0837 
     74 H74       -81.3520   29.9238  -69.9841 H         1 UNK         0.0685 
     75 H75       -80.5442   29.2361  -68.6029 H         1 UNK         0.0685 
     76 H76       -78.6715   27.3106  -69.4545 H         1 UNK         0.1434 
     77 H77       -75.8326   29.3108  -71.9550 H         1 UNK         0.1329 
     78 H78       -79.7599   30.9581  -71.4260 H         1 UNK         0.1335 
     79 H79       -78.1944   32.1897  -72.6670 H         1 UNK         0.0680 
     80 H80       -76.5303   31.9822  -72.2057 H         1 UNK         0.0680 
     81 H81       -74.8606   30.7433  -73.3477 H         1 UNK         0.1032 
     82 H82       -74.7495   31.8401  -74.6764 H         1 UNK         0.1032 
     83 H83       -75.4671   28.9876  -75.3713 H         1 UNK         0.0461 
     84 H84       -73.0766   30.0939  -78.2857 H         1 UNK         0.3453 
     85 H85       -72.5624   29.2580  -76.8376 H         1 UNK         0.3453 
     86 H86       -73.7278   27.9412  -74.6591 H         1 UNK         0.2984 
     87 H87       -70.4721   28.8845  -73.5470 H         1 UNK         0.0554 
     88 H88       -71.0792   27.4414  -71.6322 H         1 UNK         0.0847 
     89 H89       -72.7863   27.5243  -72.0569 H         1 UNK         0.0847 
     90 H90       -71.9414   28.9648  -71.5047 H         1 UNK         0.0847 
     91 H91       -72.1980   26.9086  -74.8850 H         1 UNK         0.3141 
     92 H92       -69.3651   24.8553  -75.6051 H         1 UNK         0.0743 
     93 H93       -72.1549   24.2709  -74.4679 H         1 UNK         0.0784 
     94 H94       -71.1190   23.1262  -75.3181 H         1 UNK         0.0784 
     95 H95       -70.6340   23.7560  -73.7521 H         1 UNK         0.0784 
     96 H96       -71.9418   25.0557  -76.8326 H         1 UNK         0.3213 
     97 H97       -71.1360   27.5244  -79.2344 H         1 UNK         0.0855 
     98 H98       -70.0586   25.5497  -80.2391 H         1 UNK         0.0814 
     99 H99       -71.6870   25.7296  -80.8712 H         1 UNK         0.0814 
    100 H100      -71.3369   24.4970  -79.6598 H         1 UNK         0.0814 
    101 H101      -73.2476   27.5688  -78.6690 H         1 UNK         0.3105 
    102 H102      -75.1517   27.2212  -77.7651 H         1 UNK         0.0547 
    103 H103      -75.7603   26.1241  -79.9389 H         1 UNK         0.0837 
    104 H104      -76.1607   24.6429  -79.0789 H         1 UNK         0.0837 
    105 H105      -77.0998   26.1097  -78.8042 H         1 UNK         0.0837 
    106 H106      -76.5410   25.1613  -76.5981 H         1 UNK         0.3020 
    107 H107      -75.0815   24.4295  -73.7104 H         1 UNK         0.1245 
    108 H108      -76.6505   27.0409  -73.4045 H         1 UNK         0.0781 
    109 H109      -74.9762   26.8534  -72.9325 H         1 UNK         0.0781 
    110 H110      -75.1167   27.4661  -70.5290 H         1 UNK         0.0836 
    111 H111      -76.2140   26.7920  -69.3531 H         1 UNK         0.0836 
    112 H112      -77.8539   25.1566  -74.3488 H         1 UNK         0.3022 
    113 H113      -78.6090   21.9662  -75.7020 H         1 UNK         0.0747 
    114 H114      -80.2977   21.9400  -73.8986 H         1 UNK         0.0793 
    115 H115      -78.7136   21.5744  -73.2361 H         1 UNK         0.0793 
    116 H116      -79.4047   23.1748  -73.0019 H         1 UNK         0.0793 
    117 H117      -80.2183   24.2677  -75.0865 H         1 UNK         0.3047 
    118 H118      -79.7413   25.8455  -78.2950 H         1 UNK         0.0822 
    119 H119      -82.2119   25.7012  -78.2158 H         1 UNK         0.0807 
    120 H120      -82.1349   24.5050  -76.9221 H         1 UNK         0.0807 
    121 H121      -81.5303   24.1134  -78.5258 H         1 UNK         0.0807 
    122 H122      -81.2356   26.6256  -75.9886 H         1 UNK         0.2946 
    123 H123      -78.7826   28.5167  -74.3523 H         1 UNK         0.1144 
    124 H124      -80.1122   30.5294  -74.9518 H         1 UNK         0.0793 
    125 H125      -80.8719   29.6708  -76.2945 H         1 UNK         0.0793 
    126 H126      -79.1519   30.0278  -76.3324 H         1 UNK         0.0793 
    127 H127      -81.6363   28.5832  -74.2509 H         1 UNK         0.2896 
@<TRIPOS>BOND
     1    1    2 1    
     2    1   67 1    
     3    1   68 1    
     4    1   69 1    
     5    2    3 2    
     6    2    4 am   BACKBONE|DICT|INTERRES
     7    4    5 1    
     8    4   70 1    
     9    5    6 1    
    10    5   65 1    
    11    5   71 1    
    12    6    7 1    
    13    6   72 1    
    14    6   73 1    
    15    7    8 1    
    16    8    9 1    
    17    8   74 1    
    18    8   75 1    
    19    9   10 ar   
    20    9   14 ar   
    21   10   11 ar   
    22   10   76 1    
    23   11   12 ar   
    24   11   48 1    
    25   12   13 ar   
    26   12   77 1    
    27   13   14 ar   
    28   13   15 1    
    29   14   78 1    
    30   15   16 1    
    31   15   79 1    
    32   15   80 1    
    33   16   17 1    
    34   17   18 1    
    35   17   81 1    
    36   17   82 1    
    37   18   19 1    
    38   18   22 1    
    39   18   83 1    
    40   19   20 am   BACKBONE|DICT|INTERRES
    41   19   21 2    
    42   20   84 1    
    43   20   85 1    
    44   22   23 am   BACKBONE|DICT|INTERRES
    45   22   86 1    
    46   23   24 2    
    47   23   25 1    
    48   25   26 1    
    49   25   27 1    
    50   25   87 1    
    51   26   88 1    
    52   26   89 1    
    53   26   90 1    
    54   27   28 am   BACKBONE|DICT|INTERRES
    55   27   91 1    
    56   28   29 2    
    57   28   30 1    
    58   30   31 1    
    59   30   32 1    
    60   30   92 1    
    61   31   93 1    
    62   31   94 1    
    63   31   95 1    
    64   32   33 am   BACKBONE|DICT|INTERRES
    65   32   96 1    
    66   33   34 2    
    67   33   35 1    
    68   35   36 1    
    69   35   37 1    
    70   35   97 1    
    71   36   98 1    
    72   36   99 1    
    73   36  100 1    
    74   37   38 am   BACKBONE|DICT|INTERRES
    75   37  101 1    
    76   38   39 2    
    77   38   40 1    
    78   40   41 1    
    79   40   42 1    
    80   40  102 1    
    81   41  103 1    
    82   41  104 1    
    83   41  105 1    
    84   42   43 am   BACKBONE|DICT|INTERRES
    85   42  106 1    
    86   43   44 2    
    87   43   45 1    
    88   45   46 1    
    89   45   49 1    
    90   45  107 1    
    91   46   47 1    
    92   46  108 1    
    93   46  109 1    
    94   47   48 1    
    95   48  110 1    
    96   48  111 1    
    97   49   50 am   BACKBONE|DICT|INTERRES
    98   49  112 1    
    99   50   51 2    
   100   50   52 1    
   101   52   53 1    
   102   52   54 1    
   103   52  113 1    
   104   53  114 1    
   105   53  115 1    
   106   53  116 1    
   107   54   55 am   BACKBONE|DICT|INTERRES
   108   54  117 1    
   109   55   56 2    
   110   55   57 1    
   111   57   58 1    
   112   57   59 1    
   113   57  118 1    
   114   58  119 1    
   115   58  120 1    
   116   58  121 1    
   117   59   60 am   BACKBONE|DICT|INTERRES
   118   59  122 1    
   119   60   61 2    
   120   60   62 1    
   121   62   63 1    
   122   62   64 1    
   123   62  123 1    
   124   63  124 1    
   125   63  125 1    
   126   63  126 1    
   127   64   65 am   BACKBONE|DICT|INTERRES
   128   64  127 1    
   129   65   66 2    
@<TRIPOS>SUBSTRUCTURE
     1 UNK         1 GROUP             0       ****    0 ROOT    
