@<TRIPOS>MOLECULE
3R135
127   129    1
SMALL
USER_CHARGES


@<TRIPOS>ATOM
      1 CA        -83.3674   21.4903  -69.6017 C.3       0 UNK        -0.1998 
      2 C         -82.9915   22.7356  -70.3909 C.2       0 UNK         0.4909 
      3 O         -83.7908   23.6685  -70.4802 O.2       0 UNK        -0.5240 
      4 N         -81.7781   22.7622  -70.9568 N.am      1 UNK        -0.4739 
      5 CA        -81.2816   23.8458  -71.8092 C.3       1 UNK         0.0864 
      6 C6        -79.7394   23.7736  -71.9511 C.3       11 UNK        -0.0881 
      7 S7        -79.0095   25.2680  -72.7055 S.3       11 UNK        -0.2682 
      8 C8        -78.5910   26.2340  -71.2245 C.3       11 UNK         0.0289 
      9 C9        -77.9123   27.5392  -71.6052 C.ar      11 UNK        -0.0687 
     10 C10       -78.6739   28.6248  -72.0467 C.ar      11 UNK        -0.0823 
     11 C11       -78.0551   29.8242  -72.4122 C.ar      11 UNK        -0.0830 
     12 C12       -76.6629   29.9376  -72.3164 C.ar      11 UNK        -0.1021 
     13 C13       -75.8926   28.8595  -71.8686 C.ar      11 UNK        -0.0753 
     14 C14       -76.5231   27.6632  -71.5163 C.ar      11 UNK        -0.0933 
     15 C15       -74.3818   28.9859  -71.7460 C.3       11 UNK         0.0166 
     16 S16       -73.5516   28.6021  -73.3184 S.3       11 UNK        -0.2615 
     17 C17       -72.7535   30.2059  -73.6871 C.3       11 UNK        -0.0865 
     18 CA        -71.9854   30.2301  -75.0375 C.3       10 UNK         0.0862 
     19 C         -71.3309   31.6193  -75.2901 C.2       10 UNK         0.5551 
     20 N         -70.0199   31.7142  -75.4765 N.am      10 UNK        -0.7319 
     21 O         -72.0268   32.6312  -75.3205 O.2       10 UNK        -0.5018 
     22 N         -71.0691   29.0871  -75.1541 N.am      10 UNK        -0.4509 
     23 C         -70.6481   28.5250  -76.2909 C.2       10 UNK         0.4899 
     24 O         -70.9044   28.9672  -77.4102 O.2       10 UNK        -0.4839 
     25 CA        -69.8436   27.2163  -76.1681 C.3       9 UNK         0.0222 
     26 CB        -68.3296   27.4931  -76.0870 C.3       9 UNK        -0.1966 
     27 N         -70.3058   26.3297  -75.0858 N.am      9 UNK        -0.4218 
     28 C         -70.2216   26.5044  -73.7571 C.2       9 UNK         0.5020 
     29 O         -69.6638   27.4666  -73.2271 O.2       9 UNK        -0.5274 
     30 CA        -70.9715   25.4807  -72.8928 C.3       8 UNK         0.0270 
     31 CB        -71.0142   25.8679  -71.4019 C.3       8 UNK        -0.1976 
     32 N         -72.3392   25.3659  -73.3950 N.am      8 UNK        -0.4313 
     33 C         -72.9315   24.2341  -73.7888 C.2       8 UNK         0.5041 
     34 O         -72.4137   23.1196  -73.7071 O.2       8 UNK        -0.5577 
     35 CA        -74.3390   24.3699  -74.3953 C.3       7 UNK         0.0284 
     36 CB        -75.3975   24.2517  -73.2886 C.3       7 UNK        -0.1958 
     37 N         -74.5574   25.6125  -75.1479 N.am      7 UNK        -0.4454 
     38 C         -73.8786   25.9913  -76.2426 C.2       7 UNK         0.5089 
     39 O         -72.9315   25.3545  -76.7067 O.2       7 UNK        -0.5125 
     40 CA        -74.3193   27.2958  -76.9310 C.3       6 UNK         0.0408 
     41 CB        -74.2523   27.1929  -78.4649 C.3       6 UNK        -0.1791 
     42 N         -75.6736   27.6878  -76.5377 N.am      6 UNK        -0.4762 
     43 C         -76.0469   28.9236  -76.1719 C.2       6 UNK         0.5007 
     44 O         -75.2857   29.8910  -76.1544 O.2       6 UNK        -0.5032 
     45 CA        -77.5318   29.0990  -75.7814 C.3       5 UNK         0.0783 
     46 C46       -77.9417   30.5792  -75.5464 C.3       11 UNK        -0.0857 
     47 S47       -79.5068   30.6953  -74.6188 S.3       11 UNK        -0.2512 
     48 C48       -78.8942   30.9879  -72.9247 C.3       11 UNK         0.0225 
     49 N         -78.4175   28.3797  -76.7061 N.am      5 UNK        -0.4615 
     50 C         -78.4963   28.5496  -78.0341 C.2       4 UNK         0.5053 
     51 O         -77.9708   29.4888  -78.6333 O.2       4 UNK        -0.5105 
     52 CA        -79.2648   27.4813  -78.8440 C.3       4 UNK         0.0263 
     53 CB        -78.5186   27.1213  -80.1462 C.3       4 UNK        -0.1981 
     54 N         -79.6038   26.2505  -78.1106 N.am      4 UNK        -0.4224 
     55 C         -78.7801   25.3905  -77.4912 C.2       3 UNK         0.4895 
     56 O         -77.5643   25.5626  -77.3767 O.2       3 UNK        -0.5091 
     57 CA        -79.4524   24.1655  -76.8432 C.3       3 UNK         0.0250 
     58 CB        -78.4496   23.2592  -76.1066 C.3       3 UNK        -0.1996 
     59 N         -80.5071   24.5622  -75.9059 N.am      3 UNK        -0.4254 
     60 C         -81.7629   24.8989  -76.2351 C.2       2 UNK         0.5004 
     61 O         -82.1551   24.9491  -77.4022 O.2       2 UNK        -0.5226 
     62 CA        -82.7264   25.2968  -75.0964 C.3       2 UNK         0.0269 
     63 CB        -84.1394   24.7079  -75.2960 C.3       2 UNK        -0.1926 
     64 N         -82.2139   25.0175  -73.7459 N.am      2 UNK        -0.4687 
     65 C         -81.9790   23.8205  -73.1861 C.2       1 UNK         0.5165 
     66 O         -82.2243   22.7397  -73.7276 O.2       1 UNK        -0.5079 
     67 H67       -83.5953   21.7547  -68.5694 H         1 UNK         0.0900 
     68 H68       -82.5636   20.7544  -69.5935 H         1 UNK         0.0900 
     69 H69       -84.2503   21.0231  -70.0370 H         1 UNK         0.0900 
     70 H70       -81.1778   21.9536  -70.8784 H         1 UNK         0.2959 
     71 H71       -81.5346   24.7861  -71.3134 H         1 UNK         0.1079 
     72 H72       -79.2807   23.6228  -70.9724 H         1 UNK         0.0837 
     73 H73       -79.4461   22.9075  -72.5481 H         1 UNK         0.0837 
     74 H74       -79.4976   26.4405  -70.6538 H         1 UNK         0.0685 
     75 H75       -77.9418   25.6432  -70.5763 H         1 UNK         0.0685 
     76 H76       -79.7486   28.5302  -72.1243 H         1 UNK         0.1434 
     77 H77       -76.1749   30.8611  -72.5970 H         1 UNK         0.1329 
     78 H78       -75.9309   26.8297  -71.1660 H         1 UNK         0.1335 
     79 H79       -74.0076   28.3053  -70.9797 H         1 UNK         0.0680 
     80 H80       -74.1212   29.9897  -71.4074 H         1 UNK         0.0680 
     81 H81       -72.0775   30.4487  -72.8651 H         1 UNK         0.1032 
     82 H82       -73.5287   30.9750  -73.6875 H         1 UNK         0.1032 
     83 H83       -72.7252   30.1209  -75.8302 H         1 UNK         0.0461 
     84 H84       -69.6055   32.6178  -75.6419 H         1 UNK         0.3453 
     85 H85       -69.4451   30.8874  -75.4568 H         1 UNK         0.3453 
     86 H86       -70.7513   28.6744  -74.2828 H         1 UNK         0.2984 
     87 H87       -70.0229   26.6586  -77.0888 H         1 UNK         0.0554 
     88 H88       -67.9906   28.0464  -76.9638 H         1 UNK         0.0847 
     89 H89       -67.7582   26.5657  -76.0490 H         1 UNK         0.0847 
     90 H90       -68.0649   28.0864  -75.2116 H         1 UNK         0.0847 
     91 H91       -70.8534   25.5398  -75.4054 H         1 UNK         0.3141 
     92 H92       -70.4386   24.5326  -72.9889 H         1 UNK         0.0743 
     93 H93       -71.5117   26.8266  -71.2483 H         1 UNK         0.0784 
     94 H94       -71.5446   25.1181  -70.8147 H         1 UNK         0.0784 
     95 H95       -70.0077   25.9501  -70.9895 H         1 UNK         0.0784 
     96 H96       -72.8408   26.2372  -73.5187 H         1 UNK         0.3213 
     97 H97       -74.4764   23.5404  -75.0922 H         1 UNK         0.0855 
     98 H98       -75.2935   23.3108  -72.7465 H         1 UNK         0.0814 
     99 H99       -76.4051   24.2765  -73.6972 H         1 UNK         0.0814 
    100 H100      -75.3112   25.0575  -72.5605 H         1 UNK         0.0814 
    101 H101      -75.2979   26.2175  -74.8242 H         1 UNK         0.3105 
    102 H102      -73.6064   28.0550  -76.6092 H         1 UNK         0.0547 
    103 H103      -73.2400   26.9642  -78.8008 H         1 UNK         0.0837 
    104 H104      -74.9115   26.4098  -78.8418 H         1 UNK         0.0837 
    105 H105      -74.5430   28.1317  -78.9364 H         1 UNK         0.0837 
    106 H106      -76.3819   26.9623  -76.6298 H         1 UNK         0.3020 
    107 H107      -77.6151   28.5779  -74.8270 H         1 UNK         0.1245 
    108 H108      -78.0491   31.1096  -76.4933 H         1 UNK         0.0781 
    109 H109      -77.1770   31.1222  -74.9886 H         1 UNK         0.0781 
    110 H110      -79.7472   31.1383  -72.2613 H         1 UNK         0.0836 
    111 H111      -78.3244   31.9183  -72.9009 H         1 UNK         0.0836 
    112 H112      -78.8979   27.5833  -76.3151 H         1 UNK         0.3022 
    113 H113      -80.2151   27.9408  -79.1197 H         1 UNK         0.0747 
    114 H114      -78.3792   27.9990  -80.7785 H         1 UNK         0.0793 
    115 H115      -77.5302   26.7079  -79.9416 H         1 UNK         0.0793 
    116 H116      -79.0736   26.3892  -80.7328 H         1 UNK         0.0793 
    117 H117      -80.5906   26.0068  -78.0994 H         1 UNK         0.3047 
    118 H118      -79.8967   23.5792  -77.6505 H         1 UNK         0.0822 
    119 H119      -77.9660   23.7850  -75.2849 H         1 UNK         0.0807 
    120 H120      -77.6644   22.9127  -76.7800 H         1 UNK         0.0807 
    121 H121      -78.9390   22.3753  -75.6971 H         1 UNK         0.0807 
    122 H122      -80.2493   24.5947  -74.9294 H         1 UNK         0.2946 
    123 H123      -82.8171   26.3824  -75.1619 H         1 UNK         0.1144 
    124 H124      -84.8108   25.0042  -74.4901 H         1 UNK         0.0793 
    125 H125      -84.1256   23.6186  -75.3390 H         1 UNK         0.0793 
    126 H126      -84.5813   25.0601  -76.2289 H         1 UNK         0.0793 
    127 H127      -81.9490   25.8382  -73.2174 H         1 UNK         0.2896 
@<TRIPOS>BOND
     1    1    2 1    
     2    1   67 1    
     3    1   68 1    
     4    1   69 1    
     5    2    3 2    
     6    2    4 am   BACKBONE|DICT|INTERRES
     7    4    5 1    
     8    4   70 1    
     9    5    6 1    
    10    5   65 1    
    11    5   71 1    
    12    6    7 1    
    13    6   72 1    
    14    6   73 1    
    15    7    8 1    
    16    8    9 1    
    17    8   74 1    
    18    8   75 1    
    19    9   10 ar   
    20    9   14 ar   
    21   10   11 ar   
    22   10   76 1    
    23   11   12 ar   
    24   11   48 1    
    25   12   13 ar   
    26   12   77 1    
    27   13   14 ar   
    28   13   15 1    
    29   14   78 1    
    30   15   16 1    
    31   15   79 1    
    32   15   80 1    
    33   16   17 1    
    34   17   18 1    
    35   17   81 1    
    36   17   82 1    
    37   18   19 1    
    38   18   22 1    
    39   18   83 1    
    40   19   20 am   BACKBONE|DICT|INTERRES
    41   19   21 2    
    42   20   84 1    
    43   20   85 1    
    44   22   23 am   BACKBONE|DICT|INTERRES
    45   22   86 1    
    46   23   24 2    
    47   23   25 1    
    48   25   26 1    
    49   25   27 1    
    50   25   87 1    
    51   26   88 1    
    52   26   89 1    
    53   26   90 1    
    54   27   28 am   BACKBONE|DICT|INTERRES
    55   27   91 1    
    56   28   29 2    
    57   28   30 1    
    58   30   31 1    
    59   30   32 1    
    60   30   92 1    
    61   31   93 1    
    62   31   94 1    
    63   31   95 1    
    64   32   33 am   BACKBONE|DICT|INTERRES
    65   32   96 1    
    66   33   34 2    
    67   33   35 1    
    68   35   36 1    
    69   35   37 1    
    70   35   97 1    
    71   36   98 1    
    72   36   99 1    
    73   36  100 1    
    74   37   38 am   BACKBONE|DICT|INTERRES
    75   37  101 1    
    76   38   39 2    
    77   38   40 1    
    78   40   41 1    
    79   40   42 1    
    80   40  102 1    
    81   41  103 1    
    82   41  104 1    
    83   41  105 1    
    84   42   43 am   BACKBONE|DICT|INTERRES
    85   42  106 1    
    86   43   44 2    
    87   43   45 1    
    88   45   46 1    
    89   45   49 1    
    90   45  107 1    
    91   46   47 1    
    92   46  108 1    
    93   46  109 1    
    94   47   48 1    
    95   48  110 1    
    96   48  111 1    
    97   49   50 am   BACKBONE|DICT|INTERRES
    98   49  112 1    
    99   50   51 2    
   100   50   52 1    
   101   52   53 1    
   102   52   54 1    
   103   52  113 1    
   104   53  114 1    
   105   53  115 1    
   106   53  116 1    
   107   54   55 am   BACKBONE|DICT|INTERRES
   108   54  117 1    
   109   55   56 2    
   110   55   57 1    
   111   57   58 1    
   112   57   59 1    
   113   57  118 1    
   114   58  119 1    
   115   58  120 1    
   116   58  121 1    
   117   59   60 am   BACKBONE|DICT|INTERRES
   118   59  122 1    
   119   60   61 2    
   120   60   62 1    
   121   62   63 1    
   122   62   64 1    
   123   62  123 1    
   124   63  124 1    
   125   63  125 1    
   126   63  126 1    
   127   64   65 am   BACKBONE|DICT|INTERRES
   128   64  127 1    
   129   65   66 2    
@<TRIPOS>SUBSTRUCTURE
     1 UNK         1 GROUP             0       ****    0 ROOT    
