@<TRIPOS>MOLECULE
3R135
127   129    1
SMALL
USER_CHARGES


@<TRIPOS>ATOM
      1 CA        -77.1173   22.5345  -75.2990 C.3       0 UNK        -0.1998 
      2 C         -77.6048   22.6949  -73.8673 C.2       0 UNK         0.4909 
      3 O         -77.2388   21.9039  -72.9984 O.2       0 UNK        -0.5240 
      4 N         -78.4503   23.6995  -73.6226 N.am      1 UNK        -0.4739 
      5 CA        -79.0712   24.0208  -72.3351 C.3       1 UNK         0.0864 
      6 C6        -79.1071   25.5533  -72.0934 C.3       11 UNK        -0.0881 
      7 S7        -77.4318   26.2609  -71.9719 S.3       11 UNK        -0.2682 
      8 C8        -77.7984   28.0272  -71.7302 C.3       11 UNK         0.0289 
      9 C9        -77.4155   28.8530  -72.9495 C.ar      11 UNK        -0.0687 
     10 C10       -78.3974   29.4396  -73.7570 C.ar      11 UNK        -0.0823 
     11 C11       -78.0320   30.2277  -74.8544 C.ar      11 UNK        -0.0830 
     12 C12       -76.6773   30.4253  -75.1368 C.ar      11 UNK        -0.1021 
     13 C13       -75.6895   29.8488  -74.3362 C.ar      11 UNK        -0.0753 
     14 C14       -76.0641   29.0615  -73.2451 C.ar      11 UNK        -0.0933 
     15 C15       -74.2229   30.0958  -74.6537 C.3       11 UNK         0.0166 
     16 S16       -73.6592   31.6809  -73.9619 S.3       11 UNK        -0.2615 
     17 C17       -73.3293   31.2416  -72.2197 C.3       11 UNK        -0.0865 
     18 CA        -71.9393   31.7455  -71.7443 C.3       10 UNK         0.0862 
     19 C         -71.7393   31.5255  -70.2167 C.2       10 UNK         0.5551 
     20 N         -70.6275   30.9564  -69.7659 N.am      10 UNK        -0.7319 
     21 O         -72.6017   31.8919  -69.4220 O.2       10 UNK        -0.5018 
     22 N         -70.8477   31.1872  -72.5637 N.am      10 UNK        -0.4509 
     23 C         -69.8891   31.9010  -73.1677 C.2       10 UNK         0.4899 
     24 O         -69.7963   33.1269  -73.0930 O.2       10 UNK        -0.4839 
     25 CA        -68.8342   31.1302  -73.9876 C.3       9 UNK         0.0222 
     26 CB        -67.4641   31.1923  -73.2906 C.3       9 UNK        -0.1966 
     27 N         -69.1712   29.7253  -74.2463 N.am      9 UNK        -0.4218 
     28 C         -70.1009   29.3013  -75.1123 C.2       9 UNK         0.5020 
     29 O         -70.8013   30.0491  -75.7990 O.2       9 UNK        -0.5274 
     30 CA        -70.2806   27.7816  -75.2079 C.3       8 UNK         0.0270 
     31 CB        -70.9197   27.2078  -73.9279 C.3       8 UNK        -0.1976 
     32 N         -71.1321   27.4637  -76.3500 N.am      8 UNK        -0.4313 
     33 C         -71.0213   26.3836  -77.1275 C.2       8 UNK         0.5041 
     34 O         -70.1562   25.5172  -76.9820 O.2       8 UNK        -0.5577 
     35 CA        -72.1115   26.2098  -78.1981 C.3       7 UNK         0.0284 
     36 CB        -71.6980   25.2296  -79.3120 C.3       7 UNK        -0.1958 
     37 N         -73.3234   25.7130  -77.5473 N.am      7 UNK        -0.4454 
     38 C         -74.2318   26.4876  -76.9441 C.2       7 UNK         0.5089 
     39 O         -74.2202   27.7195  -76.9862 O.2       7 UNK        -0.5125 
     40 CA        -75.2765   25.7558  -76.0893 C.3       6 UNK         0.0408 
     41 CB        -74.7578   25.5903  -74.6515 C.3       6 UNK        -0.1791 
     42 N         -76.5518   26.4687  -76.0521 N.am      6 UNK        -0.4762 
     43 C         -77.4400   26.4842  -77.0535 C.2       6 UNK         0.5007 
     44 O         -77.2825   25.8921  -78.1242 O.2       6 UNK        -0.5032 
     45 CA        -78.7332   27.2807  -76.8065 C.3       5 UNK         0.0783 
     46 C46       -78.7002   28.6698  -77.4838 C.3       11 UNK        -0.0857 
     47 S47       -80.0136   29.7246  -76.7797 S.3       11 UNK        -0.2512 
     48 C48       -79.0871   30.8952  -75.7303 C.3       11 UNK         0.0225 
     49 N         -79.8975   26.5004  -77.2350 N.am      5 UNK        -0.4615 
     50 C         -80.3976   25.4793  -76.5371 C.2       4 UNK         0.5053 
     51 O         -79.9439   25.1088  -75.4537 O.2       4 UNK        -0.5105 
     52 CA        -81.5919   24.7366  -77.1383 C.3       4 UNK         0.0263 
     53 CB        -81.1215   23.5860  -78.0460 C.3       4 UNK        -0.1981 
     54 N         -82.3809   24.2129  -76.0291 N.am      4 UNK        -0.4224 
     55 C         -83.6781   23.8931  -76.0601 C.2       3 UNK         0.4895 
     56 O         -84.3706   23.9642  -77.0773 O.2       3 UNK        -0.5091 
     57 CA        -84.3167   23.4522  -74.7255 C.3       3 UNK         0.0250 
     58 CB        -85.5502   22.5449  -74.9263 C.3       3 UNK        -0.1996 
     59 N         -83.3716   22.8501  -73.7722 N.am      3 UNK        -0.4254 
     60 C         -82.6803   21.7097  -73.9145 C.2       2 UNK         0.5004 
     61 O         -82.7062   21.0069  -74.9263 O.2       2 UNK        -0.5226 
     62 CA        -81.7945   21.3048  -72.7203 C.3       2 UNK         0.0269 
     63 CB        -81.4128   19.8130  -72.7543 C.3       2 UNK        -0.1926 
     64 N         -80.5669   22.1000  -72.6637 N.am      2 UNK        -0.4687 
     65 C         -80.4738   23.3771  -72.2678 C.2       1 UNK         0.5165 
     66 O         -81.4465   24.0308  -71.8840 O.2       1 UNK        -0.5079 
     67 H67       -77.5052   23.3192  -75.9491 H         1 UNK         0.0900 
     68 H68       -77.4375   21.5731  -75.6993 H         1 UNK         0.0900 
     69 H69       -76.0289   22.5724  -75.3305 H         1 UNK         0.0900 
     70 H70       -78.7951   24.2690  -74.3949 H         1 UNK         0.2959 
     71 H71       -78.4917   23.5716  -71.5254 H         1 UNK         0.1079 
     72 H72       -79.6521   26.0606  -72.8918 H         1 UNK         0.0837 
     73 H73       -79.6304   25.7833  -71.1632 H         1 UNK         0.0837 
     74 H74       -78.8513   28.1666  -71.4804 H         1 UNK         0.0685 
     75 H75       -77.2344   28.3848  -70.8675 H         1 UNK         0.0685 
     76 H76       -79.4446   29.2907  -73.5307 H         1 UNK         0.1434 
     77 H77       -76.3849   31.0396  -75.9776 H         1 UNK         0.1329 
     78 H78       -75.3056   28.6151  -72.6170 H         1 UNK         0.1335 
     79 H79       -73.5987   29.2779  -74.2930 H         1 UNK         0.0680 
     80 H80       -74.0842   30.1239  -75.7354 H         1 UNK         0.0680 
     81 H81       -73.4054   30.1623  -72.0815 H         1 UNK         0.1032 
     82 H82       -74.1272   31.6795  -71.6168 H         1 UNK         0.1032 
     83 H83       -71.9483   32.8306  -71.8610 H         1 UNK         0.0461 
     84 H84       -69.9011   30.6760  -70.4044 H         1 UNK         0.3453 
     85 H85       -70.5070   30.8254  -68.7737 H         1 UNK         0.3453 
     86 H86       -70.8397   30.1847  -72.6690 H         1 UNK         0.2984 
     87 H87       -68.7460   31.6379  -74.9505 H         1 UNK         0.0554 
     88 H88       -66.6873   30.7261  -73.8972 H         1 UNK         0.0847 
     89 H89       -67.4792   30.6935  -72.3208 H         1 UNK         0.0847 
     90 H90       -67.1579   32.2254  -73.1193 H         1 UNK         0.0847 
     91 H91       -68.6432   29.0355  -73.7299 H         1 UNK         0.3141 
     92 H92       -69.2921   27.3398  -75.3521 H         1 UNK         0.0743 
     93 H93       -70.3010   27.3991  -73.0506 H         1 UNK         0.0784 
     94 H94       -71.0428   26.1269  -74.0006 H         1 UNK         0.0784 
     95 H95       -71.9026   27.6396  -73.7379 H         1 UNK         0.0784 
     96 H96       -71.8467   28.1541  -76.5538 H         1 UNK         0.3213 
     97 H97       -72.3029   27.1819  -78.6588 H         1 UNK         0.0855 
     98 H98       -70.7842   25.5648  -79.8043 H         1 UNK         0.0814 
     99 H99       -72.4696   25.1544  -80.0785 H         1 UNK         0.0814 
    100 H100      -71.5111   24.2266  -78.9262 H         1 UNK         0.0814 
    101 H101      -73.3847   24.7118  -77.4276 H         1 UNK         0.3105 
    102 H102      -75.4450   24.7646  -76.5149 H         1 UNK         0.0547 
    103 H103      -74.5763   26.5545  -74.1750 H         1 UNK         0.0837 
    104 H104      -73.8177   25.0376  -74.6327 H         1 UNK         0.0837 
    105 H105      -75.4670   25.0404  -74.0331 H         1 UNK         0.0837 
    106 H106      -76.7265   27.0253  -75.2266 H         1 UNK         0.3020 
    107 H107      -78.8150   27.4319  -75.7273 H         1 UNK         0.1245 
    108 H108      -78.8526   28.5814  -78.5609 H         1 UNK         0.0781 
    109 H109      -77.7308   29.1550  -77.3624 H         1 UNK         0.0781 
    110 H110      -79.7929   31.4331  -75.0959 H         1 UNK         0.0836 
    111 H111      -78.6293   31.6483  -76.3738 H         1 UNK         0.0836 
    112 H112      -80.2927   26.7361  -78.1332 H         1 UNK         0.3022 
    113 H113      -82.1963   25.4423  -77.7123 H         1 UNK         0.0747 
    114 H114      -81.9663   23.0581  -78.4887 H         1 UNK         0.0793 
    115 H115      -80.5063   23.9592  -78.8658 H         1 UNK         0.0793 
    116 H116      -80.5255   22.8582  -77.4935 H         1 UNK         0.0793 
    117 H117      -81.8764   24.1643  -75.1526 H         1 UNK         0.3047 
    118 H118      -84.6661   24.3718  -74.2536 H         1 UNK         0.0822 
    119 H119      -85.9975   22.2653  -73.9724 H         1 UNK         0.0807 
    120 H120      -85.2963   21.6285  -75.4600 H         1 UNK         0.0807 
    121 H121      -86.3217   23.0535  -75.5057 H         1 UNK         0.0807 
    122 H122      -83.1946   23.3888  -72.9306 H         1 UNK         0.2946 
    123 H123      -82.3698   21.4787  -71.8077 H         1 UNK         0.1144 
    124 H124      -82.3028   19.1836  -72.7979 H         1 UNK         0.0793 
    125 H125      -80.8579   19.5252  -71.8610 H         1 UNK         0.0793 
    126 H126      -80.7987   19.5703  -73.6226 H         1 UNK         0.0793 
    127 H127      -79.7210   21.6481  -72.9835 H         1 UNK         0.2896 
@<TRIPOS>BOND
     1    1    2 1    
     2    1   67 1    
     3    1   68 1    
     4    1   69 1    
     5    2    3 2    
     6    2    4 am   BACKBONE|DICT|INTERRES
     7    4    5 1    
     8    4   70 1    
     9    5    6 1    
    10    5   65 1    
    11    5   71 1    
    12    6    7 1    
    13    6   72 1    
    14    6   73 1    
    15    7    8 1    
    16    8    9 1    
    17    8   74 1    
    18    8   75 1    
    19    9   10 ar   
    20    9   14 ar   
    21   10   11 ar   
    22   10   76 1    
    23   11   12 ar   
    24   11   48 1    
    25   12   13 ar   
    26   12   77 1    
    27   13   14 ar   
    28   13   15 1    
    29   14   78 1    
    30   15   16 1    
    31   15   79 1    
    32   15   80 1    
    33   16   17 1    
    34   17   18 1    
    35   17   81 1    
    36   17   82 1    
    37   18   19 1    
    38   18   22 1    
    39   18   83 1    
    40   19   20 am   BACKBONE|DICT|INTERRES
    41   19   21 2    
    42   20   84 1    
    43   20   85 1    
    44   22   23 am   BACKBONE|DICT|INTERRES
    45   22   86 1    
    46   23   24 2    
    47   23   25 1    
    48   25   26 1    
    49   25   27 1    
    50   25   87 1    
    51   26   88 1    
    52   26   89 1    
    53   26   90 1    
    54   27   28 am   BACKBONE|DICT|INTERRES
    55   27   91 1    
    56   28   29 2    
    57   28   30 1    
    58   30   31 1    
    59   30   32 1    
    60   30   92 1    
    61   31   93 1    
    62   31   94 1    
    63   31   95 1    
    64   32   33 am   BACKBONE|DICT|INTERRES
    65   32   96 1    
    66   33   34 2    
    67   33   35 1    
    68   35   36 1    
    69   35   37 1    
    70   35   97 1    
    71   36   98 1    
    72   36   99 1    
    73   36  100 1    
    74   37   38 am   BACKBONE|DICT|INTERRES
    75   37  101 1    
    76   38   39 2    
    77   38   40 1    
    78   40   41 1    
    79   40   42 1    
    80   40  102 1    
    81   41  103 1    
    82   41  104 1    
    83   41  105 1    
    84   42   43 am   BACKBONE|DICT|INTERRES
    85   42  106 1    
    86   43   44 2    
    87   43   45 1    
    88   45   46 1    
    89   45   49 1    
    90   45  107 1    
    91   46   47 1    
    92   46  108 1    
    93   46  109 1    
    94   47   48 1    
    95   48  110 1    
    96   48  111 1    
    97   49   50 am   BACKBONE|DICT|INTERRES
    98   49  112 1    
    99   50   51 2    
   100   50   52 1    
   101   52   53 1    
   102   52   54 1    
   103   52  113 1    
   104   53  114 1    
   105   53  115 1    
   106   53  116 1    
   107   54   55 am   BACKBONE|DICT|INTERRES
   108   54  117 1    
   109   55   56 2    
   110   55   57 1    
   111   57   58 1    
   112   57   59 1    
   113   57  118 1    
   114   58  119 1    
   115   58  120 1    
   116   58  121 1    
   117   59   60 am   BACKBONE|DICT|INTERRES
   118   59  122 1    
   119   60   61 2    
   120   60   62 1    
   121   62   63 1    
   122   62   64 1    
   123   62  123 1    
   124   63  124 1    
   125   63  125 1    
   126   63  126 1    
   127   64   65 am   BACKBONE|DICT|INTERRES
   128   64  127 1    
   129   65   66 2    
@<TRIPOS>SUBSTRUCTURE
     1 UNK         1 GROUP             0       ****    0 ROOT    
