@<TRIPOS>MOLECULE
3R135
127   129    1
SMALL
USER_CHARGES


@<TRIPOS>ATOM
      1 CA        -80.1759   24.2970  -71.9125 C.3       0 UNK        -0.1998 
      2 C         -80.9193   25.5611  -72.3109 C.2       0 UNK         0.4909 
      3 O         -81.6383   26.1305  -71.4904 O.2       0 UNK        -0.5240 
      4 N         -80.7548   25.9928  -73.5650 N.am      1 UNK        -0.4739 
      5 CA        -81.3851   27.1842  -74.1407 C.3       1 UNK         0.0864 
      6 C6        -80.3689   28.3596  -74.2651 C.3       11 UNK        -0.0881 
      7 S7        -80.8162   29.7951  -73.2332 S.3       11 UNK        -0.2682 
      8 C8        -80.0317   29.3978  -71.6303 C.3       11 UNK         0.0289 
      9 C9        -78.5324   29.1085  -71.6934 C.ar      11 UNK        -0.0687 
     10 C10       -77.9855   28.1494  -70.8354 C.ar      11 UNK        -0.0823 
     11 C11       -76.6166   27.8633  -70.8592 C.ar      11 UNK        -0.0830 
     12 C12       -75.7906   28.5388  -71.7631 C.ar      11 UNK        -0.1021 
     13 C13       -76.3238   29.4969  -72.6301 C.ar      11 UNK        -0.0753 
     14 C14       -77.6885   29.7900  -72.5775 C.ar      11 UNK        -0.0933 
     15 C15       -75.4427   30.2015  -73.6479 C.3       11 UNK         0.0166 
     16 S16       -74.8388   31.8019  -73.0248 S.3       11 UNK        -0.2615 
     17 C17       -73.2952   31.3160  -72.1769 C.3       11 UNK        -0.0865 
     18 CA        -72.0397   31.5725  -73.0533 C.3       10 UNK         0.0862 
     19 C         -70.7261   31.3111  -72.2579 C.2       10 UNK         0.5551 
     20 N         -69.8320   30.4328  -72.6988 N.am      10 UNK        -0.7319 
     21 O         -70.5101   31.9281  -71.2178 O.2       10 UNK        -0.5018 
     22 N         -72.1241   30.8443  -74.3269 N.am      10 UNK        -0.4509 
     23 C         -71.5341   31.2000  -75.4727 C.2       10 UNK         0.4899 
     24 O         -70.8878   32.2385  -75.6199 O.2       10 UNK        -0.4839 
     25 CA        -71.6994   30.2125  -76.6474 C.3       9 UNK         0.0222 
     26 CB        -70.5944   30.3672  -77.7135 C.3       9 UNK        -0.1966 
     27 N         -71.8140   28.8085  -76.2215 N.am      9 UNK        -0.4218 
     28 C         -70.9187   28.1049  -75.5051 C.2       9 UNK         0.5020 
     29 O         -69.8661   28.5795  -75.0752 O.2       9 UNK        -0.5274 
     30 CA        -71.2588   26.6415  -75.1631 C.3       8 UNK         0.0270 
     31 CB        -71.5169   26.4959  -73.6533 C.3       8 UNK        -0.1976 
     32 N         -72.4088   26.1178  -75.9074 N.am      8 UNK        -0.4313 
     33 C         -72.3793   25.7906  -77.2096 C.2       8 UNK         0.5041 
     34 O         -71.3551   25.8347  -77.8924 O.2       8 UNK        -0.5577 
     35 CA        -73.6967   25.3615  -77.8849 C.3       7 UNK         0.0284 
     36 CB        -73.6725   23.8580  -78.2051 C.3       7 UNK        -0.1958 
     37 N         -74.8994   25.6708  -77.1073 N.am      7 UNK        -0.4454 
     38 C         -75.3615   26.9077  -76.8626 C.2       7 UNK         0.5089 
     39 O         -74.8184   27.9322  -77.2779 O.2       7 UNK        -0.5125 
     40 CA        -76.6067   27.0238  -75.9586 C.3       6 UNK         0.0408 
     41 CB        -77.8732   27.0511  -76.8263 C.3       6 UNK        -0.1791 
     42 N         -76.7203   25.9510  -74.9614 N.am      6 UNK        -0.4762 
     43 C         -75.7727   25.6430  -74.0588 C.2       6 UNK         0.5007 
     44 O         -74.7131   26.2627  -73.9641 O.2       6 UNK        -0.5032 
     45 CA        -75.9883   24.3870  -73.1814 C.3       5 UNK         0.0783 
     46 C46       -76.4883   24.7462  -71.7600 C.3       11 UNK        -0.0857 
     47 S47       -75.1730   25.4614  -70.7166 S.3       11 UNK        -0.2512 
     48 C48       -76.0362   26.8386  -69.8903 C.3       11 UNK         0.0225 
     49 N         -76.8510   23.3707  -73.7975 N.am      5 UNK        -0.4615 
     50 C         -76.6690   22.7918  -74.9918 C.2       4 UNK         0.5053 
     51 O         -75.7313   23.0539  -75.7452 O.2       4 UNK        -0.5105 
     52 CA        -77.7381   21.7860  -75.4547 C.3       4 UNK         0.0263 
     53 CB        -78.6485   21.2547  -74.3238 C.3       4 UNK        -0.1981 
     54 N         -78.5474   22.3314  -76.5495 N.am      4 UNK        -0.4224 
     55 C         -79.2599   23.4690  -76.5509 C.2       3 UNK         0.4895 
     56 O         -79.3201   24.2501  -75.5926 O.2       3 UNK        -0.5091 
     57 CA        -80.0074   23.8181  -77.8561 C.3       3 UNK         0.0250 
     58 CB        -80.1885   22.6341  -78.8352 C.3       3 UNK        -0.1996 
     59 N         -81.2837   24.4776  -77.5676 N.am      3 UNK        -0.4254 
     60 C         -82.3518   23.9494  -76.9528 C.2       2 UNK         0.5004 
     61 O         -82.4765   22.7557  -76.6720 O.2       2 UNK        -0.5226 
     62 CA        -83.4239   24.9615  -76.5074 C.3       2 UNK         0.0269 
     63 CB        -84.7472   24.2873  -76.0995 C.3       2 UNK        -0.1926 
     64 N         -82.9114   25.7325  -75.3728 N.am      2 UNK        -0.4687 
     65 C         -82.0310   26.7395  -75.4658 C.2       1 UNK         0.5165 
     66 O         -81.6813   27.2240  -76.5444 O.2       1 UNK        -0.5079 
     67 H67       -79.4527   24.0079  -72.6717 H         1 UNK         0.0900 
     68 H68       -80.8778   23.4750  -71.7750 H         1 UNK         0.0900 
     69 H69       -79.6424   24.4530  -70.9752 H         1 UNK         0.0900 
     70 H70       -80.2100   25.4376  -74.2208 H         1 UNK         0.2959 
     71 H71       -82.2221   27.4997  -73.5136 H         1 UNK         0.1079 
     72 H72       -79.3585   28.0304  -74.0199 H         1 UNK         0.0837 
     73 H73       -80.2852   28.7465  -75.2810 H         1 UNK         0.0837 
     74 H74       -80.1919   30.2358  -70.9511 H         1 UNK         0.0685 
     75 H75       -80.5610   28.5487  -71.1974 H         1 UNK         0.0685 
     76 H76       -78.6301   27.6277  -70.1409 H         1 UNK         0.1434 
     77 H77       -74.7362   28.3027  -71.8008 H         1 UNK         0.1329 
     78 H78       -78.0945   30.5405  -73.2413 H         1 UNK         0.1335 
     79 H79       -76.0133   30.3794  -74.5608 H         1 UNK         0.0680 
     80 H80       -74.6105   29.5595  -73.9387 H         1 UNK         0.0680 
     81 H81       -73.2375   31.8958  -71.2536 H         1 UNK         0.1032 
     82 H82       -73.3473   30.2711  -71.8685 H         1 UNK         0.1032 
     83 H83       -72.0265   32.6388  -73.2873 H         1 UNK         0.0461 
     84 H84       -68.9886   30.2863  -72.1678 H         1 UNK         0.3453 
     85 H85       -69.9738   29.9215  -73.5630 H         1 UNK         0.3453 
     86 H86       -72.6148   29.9648  -74.3017 H         1 UNK         0.2984 
     87 H87       -72.6508   30.4622  -77.1194 H         1 UNK         0.0554 
     88 H88       -70.7394   29.6707  -78.5392 H         1 UNK         0.0847 
     89 H89       -69.6025   30.1904  -77.2960 H         1 UNK         0.0847 
     90 H90       -70.5943   31.3726  -78.1363 H         1 UNK         0.0847 
     91 H91       -72.6619   28.3357  -76.5120 H         1 UNK         0.3141 
     92 H92       -70.3851   26.0374  -75.4163 H         1 UNK         0.0743 
     93 H93       -71.7771   25.4710  -73.3883 H         1 UNK         0.0784 
     94 H94       -70.6287   26.7630  -73.0789 H         1 UNK         0.0784 
     95 H95       -72.3252   27.1453  -73.3152 H         1 UNK         0.0784 
     96 H96       -73.2878   26.0655  -75.4001 H         1 UNK         0.3213 
     97 H97       -73.7648   25.9077  -78.8282 H         1 UNK         0.0855 
     98 H98       -72.8393   23.6134  -78.8654 H         1 UNK         0.0814 
     99 H99       -74.5869   23.5411  -78.7070 H         1 UNK         0.0814 
    100 H100      -73.5580   23.2560  -77.3030 H         1 UNK         0.0814 
    101 H101      -75.3711   24.8809  -76.6775 H         1 UNK         0.3105 
    102 H102      -76.5408   27.9661  -75.4120 H         1 UNK         0.0547 
    103 H103      -77.8937   27.9416  -77.4557 H         1 UNK         0.0837 
    104 H104      -77.9217   26.1866  -77.4874 H         1 UNK         0.0837 
    105 H105      -78.7795   27.0571  -76.2239 H         1 UNK         0.0837 
    106 H106      -77.5466   25.3661  -75.0121 H         1 UNK         0.3020 
    107 H107      -75.0065   23.9174  -73.0856 H         1 UNK         0.1245 
    108 H108      -76.8355   23.8493  -71.2445 H         1 UNK         0.0781 
    109 H109      -77.3502   25.4128  -71.8108 H         1 UNK         0.0781 
    110 H110      -75.3329   27.3436  -69.2268 H         1 UNK         0.0836 
    111 H111      -76.8153   26.4244  -69.2484 H         1 UNK         0.0836 
    112 H112      -77.6600   23.0899  -73.2660 H         1 UNK         0.3022 
    113 H113      -77.1913   20.9344  -75.8626 H         1 UNK         0.0747 
    114 H114      -79.2737   20.4386  -74.6864 H         1 UNK         0.0793 
    115 H115      -78.0630   20.8581  -73.4931 H         1 UNK         0.0793 
    116 H116      -79.3180   22.0194  -73.9318 H         1 UNK         0.0793 
    117 H117      -78.5409   21.7878  -77.4009 H         1 UNK         0.3047 
    118 H118      -79.3959   24.5644  -78.3633 H         1 UNK         0.0822 
    119 H119      -80.6880   21.7845  -78.3681 H         1 UNK         0.0807 
    120 H120      -79.2295   22.2854  -79.2200 H         1 UNK         0.0807 
    121 H121      -80.7834   22.9296  -79.6996 H         1 UNK         0.0807 
    122 H122      -81.2719   25.4886  -77.6504 H         1 UNK         0.2946 
    123 H123      -83.6293   25.6309  -77.3464 H         1 UNK         0.1144 
    124 H124      -85.1514   23.6952  -76.9217 H         1 UNK         0.0793 
    125 H125      -84.6182   23.6180  -75.2479 H         1 UNK         0.0793 
    126 H126      -85.5020   25.0270  -75.8321 H         1 UNK         0.0793 
    127 H127      -83.1040   25.3567  -74.4549 H         1 UNK         0.2896 
@<TRIPOS>BOND
     1    1    2 1    
     2    1   67 1    
     3    1   68 1    
     4    1   69 1    
     5    2    3 2    
     6    2    4 am   BACKBONE|DICT|INTERRES
     7    4    5 1    
     8    4   70 1    
     9    5    6 1    
    10    5   65 1    
    11    5   71 1    
    12    6    7 1    
    13    6   72 1    
    14    6   73 1    
    15    7    8 1    
    16    8    9 1    
    17    8   74 1    
    18    8   75 1    
    19    9   10 ar   
    20    9   14 ar   
    21   10   11 ar   
    22   10   76 1    
    23   11   12 ar   
    24   11   48 1    
    25   12   13 ar   
    26   12   77 1    
    27   13   14 ar   
    28   13   15 1    
    29   14   78 1    
    30   15   16 1    
    31   15   79 1    
    32   15   80 1    
    33   16   17 1    
    34   17   18 1    
    35   17   81 1    
    36   17   82 1    
    37   18   19 1    
    38   18   22 1    
    39   18   83 1    
    40   19   20 am   BACKBONE|DICT|INTERRES
    41   19   21 2    
    42   20   84 1    
    43   20   85 1    
    44   22   23 am   BACKBONE|DICT|INTERRES
    45   22   86 1    
    46   23   24 2    
    47   23   25 1    
    48   25   26 1    
    49   25   27 1    
    50   25   87 1    
    51   26   88 1    
    52   26   89 1    
    53   26   90 1    
    54   27   28 am   BACKBONE|DICT|INTERRES
    55   27   91 1    
    56   28   29 2    
    57   28   30 1    
    58   30   31 1    
    59   30   32 1    
    60   30   92 1    
    61   31   93 1    
    62   31   94 1    
    63   31   95 1    
    64   32   33 am   BACKBONE|DICT|INTERRES
    65   32   96 1    
    66   33   34 2    
    67   33   35 1    
    68   35   36 1    
    69   35   37 1    
    70   35   97 1    
    71   36   98 1    
    72   36   99 1    
    73   36  100 1    
    74   37   38 am   BACKBONE|DICT|INTERRES
    75   37  101 1    
    76   38   39 2    
    77   38   40 1    
    78   40   41 1    
    79   40   42 1    
    80   40  102 1    
    81   41  103 1    
    82   41  104 1    
    83   41  105 1    
    84   42   43 am   BACKBONE|DICT|INTERRES
    85   42  106 1    
    86   43   44 2    
    87   43   45 1    
    88   45   46 1    
    89   45   49 1    
    90   45  107 1    
    91   46   47 1    
    92   46  108 1    
    93   46  109 1    
    94   47   48 1    
    95   48  110 1    
    96   48  111 1    
    97   49   50 am   BACKBONE|DICT|INTERRES
    98   49  112 1    
    99   50   51 2    
   100   50   52 1    
   101   52   53 1    
   102   52   54 1    
   103   52  113 1    
   104   53  114 1    
   105   53  115 1    
   106   53  116 1    
   107   54   55 am   BACKBONE|DICT|INTERRES
   108   54  117 1    
   109   55   56 2    
   110   55   57 1    
   111   57   58 1    
   112   57   59 1    
   113   57  118 1    
   114   58  119 1    
   115   58  120 1    
   116   58  121 1    
   117   59   60 am   BACKBONE|DICT|INTERRES
   118   59  122 1    
   119   60   61 2    
   120   60   62 1    
   121   62   63 1    
   122   62   64 1    
   123   62  123 1    
   124   63  124 1    
   125   63  125 1    
   126   63  126 1    
   127   64   65 am   BACKBONE|DICT|INTERRES
   128   64  127 1    
   129   65   66 2    
@<TRIPOS>SUBSTRUCTURE
     1 UNK         1 GROUP             0       ****    0 ROOT    
