@<TRIPOS>MOLECULE
3R135
127   129    1
SMALL
USER_CHARGES


@<TRIPOS>ATOM
      1 CA        -83.6164   26.4088  -70.1613 C.3       0 UNK        -0.1998 
      2 C         -82.9824   26.7324  -71.5048 C.2       0 UNK         0.4909 
      3 O         -82.2016   25.9327  -72.0189 O.2       0 UNK        -0.5240 
      4 N         -83.3262   27.8922  -72.0856 N.am      1 UNK        -0.4739 
      5 CA        -82.7877   28.4400  -73.3461 C.3       1 UNK         0.0864 
      6 C6        -81.2871   28.8347  -73.2390 C.3       11 UNK        -0.0881 
      7 S7        -81.0251   30.2033  -72.0594 S.3       11 UNK        -0.2682 
      8 C8        -80.3547   29.3465  -70.5986 C.3       11 UNK         0.0289 
      9 C9        -78.9321   28.8525  -70.8170 C.ar      11 UNK        -0.0687 
     10 C10       -78.6616   27.4831  -70.9029 C.ar      11 UNK        -0.0823 
     11 C11       -77.3490   27.0304  -71.0722 C.ar      11 UNK        -0.0830 
     12 C12       -76.3050   27.9561  -71.1565 C.ar      11 UNK        -0.1021 
     13 C13       -76.5657   29.3268  -71.0851 C.ar      11 UNK        -0.0753 
     14 C14       -77.8799   29.7685  -70.9077 C.ar      11 UNK        -0.0933 
     15 C15       -75.4305   30.3340  -71.1806 C.3       11 UNK         0.0166 
     16 S16       -75.2497   30.9920  -72.8689 S.3       11 UNK        -0.2615 
     17 C17       -74.2948   29.6759  -73.7029 C.3       11 UNK        -0.0865 
     18 CA        -72.8019   30.0604  -73.9132 C.3       10 UNK         0.0862 
     19 C         -71.9197   29.7333  -72.6759 C.2       10 UNK         0.5551 
     20 N         -71.0550   28.7281  -72.7040 N.am      10 UNK        -0.7319 
     21 O         -71.9958   30.4299  -71.6672 O.2       10 UNK        -0.5018 
     22 N         -72.2720   29.5456  -75.1865 N.am      10 UNK        -0.4509 
     23 C         -72.3951   30.1826  -76.3611 C.2       10 UNK         0.4899 
     24 O         -73.0355   31.2267  -76.4992 O.2       10 UNK        -0.4839 
     25 CA        -71.6979   29.5669  -77.5954 C.3       9 UNK         0.0222 
     26 CB        -71.3546   30.6168  -78.6735 C.3       9 UNK        -0.1966 
     27 N         -70.5198   28.7567  -77.2713 N.am      9 UNK        -0.4218 
     28 C         -69.4151   29.1367  -76.6072 C.2       9 UNK         0.5020 
     29 O         -69.1780   30.3028  -76.2873 O.2       9 UNK        -0.5274 
     30 CA        -68.4168   28.0243  -76.2083 C.3       8 UNK         0.0270 
     31 CB        -67.7391   28.3131  -74.8518 C.3       8 UNK        -0.1976 
     32 N         -68.9859   26.6665  -76.2128 N.am      8 UNK        -0.4313 
     33 C         -70.0575   26.2342  -75.5318 C.2       8 UNK         0.5041 
     34 O         -70.7207   26.9345  -74.7628 O.2       8 UNK        -0.5577 
     35 CA        -70.5310   24.8058  -75.8430 C.3       7 UNK         0.0284 
     36 CB        -70.6115   23.9646  -74.5585 C.3       7 UNK        -0.1958 
     37 N         -71.8413   24.8118  -76.5006 N.am      7 UNK        -0.4454 
     38 C         -72.1592   25.4712  -77.6254 C.2       7 UNK         0.5089 
     39 O         -71.3519   26.1282  -78.2847 O.2       7 UNK        -0.5125 
     40 CA        -73.6184   25.3895  -78.1074 C.3       6 UNK         0.0408 
     41 CB        -73.7242   24.4848  -79.3456 C.3       6 UNK        -0.1791 
     42 N         -74.5504   24.9052  -77.0863 N.am      6 UNK        -0.4762 
     43 C         -75.0085   25.6159  -76.0468 C.2       6 UNK         0.5007 
     44 O         -74.6803   26.7830  -75.8282 O.2       6 UNK        -0.5032 
     45 CA        -76.0139   24.8946  -75.1202 C.3       5 UNK         0.0783 
     46 C46       -76.4524   25.7691  -73.9191 C.3       11 UNK        -0.0857 
     47 S47       -77.5410   24.8551  -72.7736 S.3       11 UNK        -0.2512 
     48 C48       -77.0569   25.5401  -71.1601 C.3       11 UNK         0.0225 
     49 N         -77.1706   24.4008  -75.8777 N.am      5 UNK        -0.4615 
     50 C         -77.2100   23.2976  -76.6310 C.2       4 UNK         0.5053 
     51 O         -76.2333   22.5649  -76.8019 O.2       4 UNK        -0.5105 
     52 CA        -78.5591   22.9675  -77.2996 C.3       4 UNK         0.0263 
     53 CB        -78.4848   21.7131  -78.1905 C.3       4 UNK        -0.1981 
     54 N         -79.6347   22.7899  -76.3190 N.am      4 UNK        -0.4224 
     55 C         -80.2865   23.7798  -75.6953 C.2       3 UNK         0.4895 
     56 O         -80.0217   24.9749  -75.8506 O.2       3 UNK        -0.5091 
     57 CA        -81.3907   23.3544  -74.7122 C.3       3 UNK         0.0250 
     58 CB        -80.8171   23.1699  -73.2991 C.3       3 UNK        -0.1996 
     59 N         -82.4791   24.3326  -74.6652 N.am      3 UNK        -0.4254 
     60 C         -83.3612   24.5270  -75.6578 C.2       2 UNK         0.5004 
     61 O         -83.3913   23.8427  -76.6823 O.2       2 UNK        -0.5226 
     62 CA        -84.4027   25.6508  -75.4904 C.3       2 UNK         0.0269 
     63 CB        -85.7818   25.0601  -75.1522 C.3       2 UNK        -0.1926 
     64 N         -84.0464   26.6353  -74.4669 N.am      2 UNK        -0.4687 
     65 C         -83.0814   27.5588  -74.5868 C.2       1 UNK         0.5165 
     66 O         -82.4547   27.7387  -75.6319 O.2       1 UNK        -0.5079 
     67 H67       -82.8424   26.2822  -69.4048 H         1 UNK         0.0900 
     68 H68       -84.1827   25.4804  -70.2279 H         1 UNK         0.0900 
     69 H69       -84.2914   27.1966  -69.8276 H         1 UNK         0.0900 
     70 H70       -83.9893   28.4932  -71.6153 H         1 UNK         0.2959 
     71 H71       -83.3499   29.3565  -73.5331 H         1 UNK         0.1079 
     72 H72       -80.6725   27.9739  -72.9721 H         1 UNK         0.0837 
     73 H73       -80.9053   29.1836  -74.2001 H         1 UNK         0.0837 
     74 H74       -81.0150   28.5258  -70.3185 H         1 UNK         0.0685 
     75 H75       -80.3617   30.0395  -69.7563 H         1 UNK         0.0685 
     76 H76       -79.4707   26.7672  -70.8416 H         1 UNK         0.1434 
     77 H77       -75.2885   27.6091  -71.2809 H         1 UNK         0.1329 
     78 H78       -78.0864   30.8284  -70.8455 H         1 UNK         0.1335 
     79 H79       -74.4923   29.8888  -70.8479 H         1 UNK         0.0680 
     80 H80       -75.6257   31.1660  -70.5022 H         1 UNK         0.0680 
     81 H81       -74.7802   29.5144  -74.6667 H         1 UNK         0.1032 
     82 H82       -74.3910   28.7242  -73.1796 H         1 UNK         0.1032 
     83 H83       -72.7442   31.1487  -73.9850 H         1 UNK         0.0461 
     84 H84       -70.4922   28.5597  -71.8864 H         1 UNK         0.3453 
     85 H85       -70.9739   28.0940  -73.4986 H         1 UNK         0.3453 
     86 H86       -71.7316   28.6882  -75.1358 H         1 UNK         0.2984 
     87 H87       -72.4218   28.8757  -78.0292 H         1 UNK         0.0554 
     88 H88       -70.8811   30.1557  -79.5401 H         1 UNK         0.0847 
     89 H89       -70.6805   31.3835  -78.2904 H         1 UNK         0.0847 
     90 H90       -72.2527   31.1228  -79.0300 H         1 UNK         0.0847 
     91 H91       -70.6103   27.7719  -77.5079 H         1 UNK         0.3141 
     92 H92       -67.6407   28.0320  -76.9749 H         1 UNK         0.0743 
     93 H93       -68.4674   28.3829  -74.0435 H         1 UNK         0.0784 
     94 H94       -67.0235   27.5334  -74.5913 H         1 UNK         0.0784 
     95 H95       -67.1915   29.2560  -74.8771 H         1 UNK         0.0784 
     96 H96       -68.5492   26.0224  -76.8589 H         1 UNK         0.3213 
     97 H97       -69.8199   24.3299  -76.5215 H         1 UNK         0.0855 
     98 H98       -71.3377   24.3722  -73.8534 H         1 UNK         0.0814 
     99 H99       -69.6467   23.9366  -74.0505 H         1 UNK         0.0814 
    100 H100      -70.8931   22.9336  -74.7738 H         1 UNK         0.0814 
    101 H101      -72.5840   24.3176  -76.0300 H         1 UNK         0.3105 
    102 H102      -73.9204   26.3983  -78.3968 H         1 UNK         0.0547 
    103 H103      -73.0661   24.8339  -80.1427 H         1 UNK         0.0837 
    104 H104      -73.4443   23.4553  -79.1191 H         1 UNK         0.0837 
    105 H105      -74.7380   24.4769  -79.7461 H         1 UNK         0.0837 
    106 H106      -74.9031   23.9576  -77.1929 H         1 UNK         0.3020 
    107 H107      -75.4835   24.0312  -74.7114 H         1 UNK         0.1245 
    108 H108      -76.9791   26.6639  -74.2567 H         1 UNK         0.0781 
    109 H109      -75.5754   26.1156  -73.3698 H         1 UNK         0.0781 
    110 H110      -75.9999   25.3366  -70.9817 H         1 UNK         0.0836 
    111 H111      -77.6044   25.0162  -70.3754 H         1 UNK         0.0836 
    112 H112      -78.0330   24.9279  -75.7765 H         1 UNK         0.3022 
    113 H113      -78.8106   23.8130  -77.9437 H         1 UNK         0.0747 
    114 H114      -79.4310   21.5321  -78.7008 H         1 UNK         0.0793 
    115 H115      -77.7207   21.8253  -78.9610 H         1 UNK         0.0793 
    116 H116      -78.2378   20.8207  -77.6136 H         1 UNK         0.0793 
    117 H117      -79.8823   21.8355  -76.0998 H         1 UNK         0.3047 
    118 H118      -81.8059   22.4002  -75.0441 H         1 UNK         0.0822 
    119 H119      -80.0038   22.4431  -73.2932 H         1 UNK         0.0807 
    120 H120      -81.5780   22.8139  -72.6045 H         1 UNK         0.0807 
    121 H121      -80.4202   24.1058  -72.9049 H         1 UNK         0.0807 
    122 H122      -82.4893   24.9580  -73.8661 H         1 UNK         0.2946 
    123 H123      -84.4751   26.1656  -76.4514 H         1 UNK         0.1144 
    124 H124      -86.0972   24.3441  -75.9126 H         1 UNK         0.0793 
    125 H125      -86.5460   25.8361  -75.1050 H         1 UNK         0.0793 
    126 H126      -85.7731   24.5364  -74.1954 H         1 UNK         0.0793 
    127 H127      -84.5144   26.5585  -73.5753 H         1 UNK         0.2896 
@<TRIPOS>BOND
     1    1    2 1    
     2    1   67 1    
     3    1   68 1    
     4    1   69 1    
     5    2    3 2    
     6    2    4 am   BACKBONE|DICT|INTERRES
     7    4    5 1    
     8    4   70 1    
     9    5    6 1    
    10    5   65 1    
    11    5   71 1    
    12    6    7 1    
    13    6   72 1    
    14    6   73 1    
    15    7    8 1    
    16    8    9 1    
    17    8   74 1    
    18    8   75 1    
    19    9   10 ar   
    20    9   14 ar   
    21   10   11 ar   
    22   10   76 1    
    23   11   12 ar   
    24   11   48 1    
    25   12   13 ar   
    26   12   77 1    
    27   13   14 ar   
    28   13   15 1    
    29   14   78 1    
    30   15   16 1    
    31   15   79 1    
    32   15   80 1    
    33   16   17 1    
    34   17   18 1    
    35   17   81 1    
    36   17   82 1    
    37   18   19 1    
    38   18   22 1    
    39   18   83 1    
    40   19   20 am   BACKBONE|DICT|INTERRES
    41   19   21 2    
    42   20   84 1    
    43   20   85 1    
    44   22   23 am   BACKBONE|DICT|INTERRES
    45   22   86 1    
    46   23   24 2    
    47   23   25 1    
    48   25   26 1    
    49   25   27 1    
    50   25   87 1    
    51   26   88 1    
    52   26   89 1    
    53   26   90 1    
    54   27   28 am   BACKBONE|DICT|INTERRES
    55   27   91 1    
    56   28   29 2    
    57   28   30 1    
    58   30   31 1    
    59   30   32 1    
    60   30   92 1    
    61   31   93 1    
    62   31   94 1    
    63   31   95 1    
    64   32   33 am   BACKBONE|DICT|INTERRES
    65   32   96 1    
    66   33   34 2    
    67   33   35 1    
    68   35   36 1    
    69   35   37 1    
    70   35   97 1    
    71   36   98 1    
    72   36   99 1    
    73   36  100 1    
    74   37   38 am   BACKBONE|DICT|INTERRES
    75   37  101 1    
    76   38   39 2    
    77   38   40 1    
    78   40   41 1    
    79   40   42 1    
    80   40  102 1    
    81   41  103 1    
    82   41  104 1    
    83   41  105 1    
    84   42   43 am   BACKBONE|DICT|INTERRES
    85   42  106 1    
    86   43   44 2    
    87   43   45 1    
    88   45   46 1    
    89   45   49 1    
    90   45  107 1    
    91   46   47 1    
    92   46  108 1    
    93   46  109 1    
    94   47   48 1    
    95   48  110 1    
    96   48  111 1    
    97   49   50 am   BACKBONE|DICT|INTERRES
    98   49  112 1    
    99   50   51 2    
   100   50   52 1    
   101   52   53 1    
   102   52   54 1    
   103   52  113 1    
   104   53  114 1    
   105   53  115 1    
   106   53  116 1    
   107   54   55 am   BACKBONE|DICT|INTERRES
   108   54  117 1    
   109   55   56 2    
   110   55   57 1    
   111   57   58 1    
   112   57   59 1    
   113   57  118 1    
   114   58  119 1    
   115   58  120 1    
   116   58  121 1    
   117   59   60 am   BACKBONE|DICT|INTERRES
   118   59  122 1    
   119   60   61 2    
   120   60   62 1    
   121   62   63 1    
   122   62   64 1    
   123   62  123 1    
   124   63  124 1    
   125   63  125 1    
   126   63  126 1    
   127   64   65 am   BACKBONE|DICT|INTERRES
   128   64  127 1    
   129   65   66 2    
@<TRIPOS>SUBSTRUCTURE
     1 UNK         1 GROUP             0       ****    0 ROOT    
