@<TRIPOS>MOLECULE
3R135
127   129    1
SMALL
USER_CHARGES


@<TRIPOS>ATOM
      1 CA        -84.8698   26.1224  -71.7555 C.3       0 UNK        -0.1998 
      2 C         -83.6471   26.9083  -71.2899 C.2       0 UNK         0.4909 
      3 O         -83.3493   26.9113  -70.0973 O.2       0 UNK        -0.5240 
      4 N         -82.9091   27.5924  -72.1762 N.am      1 UNK        -0.4739 
      5 CA        -83.0908   27.6519  -73.6342 C.3       1 UNK         0.0864 
      6 C6        -82.4134   28.9104  -74.2401 C.3       11 UNK        -0.0881 
      7 S7        -80.5955   28.9530  -74.0547 S.3       11 UNK        -0.2682 
      8 C8        -80.4024   29.9967  -72.5775 C.3       11 UNK         0.0289 
      9 C9        -79.0061   29.8478  -71.9973 C.ar      11 UNK        -0.0687 
     10 C10       -78.6380   28.6563  -71.3643 C.ar      11 UNK        -0.0823 
     11 C11       -77.3502   28.4963  -70.8465 C.ar      11 UNK        -0.0830 
     12 C12       -76.4327   29.5449  -70.9502 C.ar      11 UNK        -0.1021 
     13 C13       -76.7891   30.7399  -71.5814 C.ar      11 UNK        -0.0753 
     14 C14       -78.0793   30.8891  -72.0987 C.ar      11 UNK        -0.0933 
     15 C15       -75.7719   31.8627  -71.7147 C.3       11 UNK         0.0166 
     16 S16       -75.2856   32.1640  -73.4449 S.3       11 UNK        -0.2615 
     17 C17       -74.6745   30.5328  -73.9947 C.3       11 UNK        -0.0865 
     18 CA        -73.1491   30.3474  -73.7706 C.3       10 UNK         0.0862 
     19 C         -72.8377   29.6490  -72.4199 C.2       10 UNK         0.5551 
     20 N         -72.9114   28.3262  -72.3553 N.am      10 UNK        -0.7319 
     21 O         -72.5154   30.3072  -71.4343 O.2       10 UNK        -0.5018 
     22 N         -72.5228   29.6685  -74.9127 N.am      10 UNK        -0.4509 
     23 C         -71.2316   29.7864  -75.2438 C.2       10 UNK         0.4899 
     24 O         -70.4216   30.4845  -74.6308 O.2       10 UNK        -0.4839 
     25 CA        -70.7941   29.0068  -76.4933 C.3       9 UNK         0.0222 
     26 CB        -69.3037   29.1950  -76.8531 C.3       9 UNK        -0.1966 
     27 N         -71.1616   27.5912  -76.4079 N.am      9 UNK        -0.4218 
     28 C         -70.6538   26.6510  -75.5945 C.2       9 UNK         0.5020 
     29 O         -69.7575   26.8675  -74.7777 O.2       9 UNK        -0.5274 
     30 CA        -71.2224   25.2177  -75.7017 C.3       8 UNK         0.0270 
     31 CB        -71.6309   24.6774  -74.3193 C.3       8 UNK        -0.1976 
     32 N         -72.3577   25.0898  -76.6214 N.am      8 UNK        -0.4313 
     33 C         -72.2814   25.1004  -77.9594 C.2       8 UNK         0.5041 
     34 O         -71.2194   25.1239  -78.5816 O.2       8 UNK        -0.5577 
     35 CA        -73.6090   25.1534  -78.7374 C.3       7 UNK         0.0284 
     36 CB        -74.0607   23.7364  -79.1226 C.3       7 UNK        -0.1958 
     37 N         -74.6913   25.8389  -78.0192 N.am      7 UNK        -0.4454 
     38 C         -74.6778   27.1269  -77.6417 C.2       7 UNK         0.5089 
     39 O         -73.7435   27.8964  -77.8659 O.2       7 UNK        -0.5125 
     40 CA        -75.8738   27.6204  -76.8079 C.3       6 UNK         0.0408 
     41 CB        -77.1086   27.8712  -77.6868 C.3       6 UNK        -0.1791 
     42 N         -76.2048   26.6908  -75.7264 N.am      6 UNK        -0.4762 
     43 C         -75.3965   26.4247  -74.6888 C.2       6 UNK         0.5007 
     44 O         -74.3301   27.0102  -74.4908 O.2       6 UNK        -0.5032 
     45 CA        -75.8160   25.2654  -73.7632 C.3       5 UNK         0.0783 
     46 C46       -76.7154   25.7379  -72.5939 C.3       11 UNK        -0.0857 
     47 S47       -75.7202   26.2751  -71.1641 S.3       11 UNK        -0.2512 
     48 C48       -76.9454   27.1912  -70.1781 C.3       11 UNK         0.0225 
     49 N         -76.4374   24.1801  -74.5272 N.am      5 UNK        -0.4615 
     50 C         -75.7523   23.3194  -75.2937 C.2       4 UNK         0.5053 
     51 O         -74.5291   23.3466  -75.4176 O.2       4 UNK        -0.5105 
     52 CA        -76.5604   22.2692  -76.0768 C.3       4 UNK         0.0263 
     53 CB        -76.7702   21.0091  -75.2227 C.3       4 UNK        -0.1981 
     54 N         -77.8573   22.7659  -76.5391 N.am      4 UNK        -0.4224 
     55 C         -78.0224   23.7740  -77.4072 C.2       3 UNK         0.4895 
     56 O         -77.0927   24.3493  -77.9699 O.2       3 UNK        -0.5091 
     57 CA        -79.4608   24.2615  -77.6495 C.3       3 UNK         0.0250 
     58 CB        -80.0645   23.5629  -78.8777 C.3       3 UNK        -0.1996 
     59 N         -80.3524   24.0861  -76.4967 N.am      3 UNK        -0.4254 
     60 C         -80.1642   24.6383  -75.2898 C.2       2 UNK         0.5004 
     61 O         -79.1857   25.3287  -74.9924 O.2       2 UNK        -0.5226 
     62 CA        -81.2182   24.3239  -74.2183 C.3       2 UNK         0.0269 
     63 CB        -80.5955   23.5159  -73.0673 C.3       2 UNK        -0.1926 
     64 N         -81.7954   25.5547  -73.6842 N.am      2 UNK        -0.4687 
     65 C         -82.6419   26.3559  -74.3478 C.2       1 UNK         0.5165 
     66 O         -83.0877   26.0966  -75.4665 O.2       1 UNK        -0.5079 
     67 H67       -84.5844   25.3098  -72.4225 H         1 UNK         0.0900 
     68 H68       -85.5812   26.7694  -72.2674 H         1 UNK         0.0900 
     69 H69       -85.3846   25.6811  -70.9022 H         1 UNK         0.0900 
     70 H70       -82.1095   28.1021  -71.8322 H         1 UNK         0.2959 
     71 H71       -84.1590   27.7513  -73.8354 H         1 UNK         0.1079 
     72 H72       -82.6419   28.9793  -75.3055 H         1 UNK         0.0837 
     73 H73       -82.8412   29.8113  -73.7972 H         1 UNK         0.0837 
     74 H74       -80.6079   31.0347  -72.8437 H         1 UNK         0.0685 
     75 H75       -81.1342   29.7220  -71.8178 H         1 UNK         0.0685 
     76 H76       -79.3518   27.8470  -71.2934 H         1 UNK         0.1434 
     77 H77       -75.4330   29.4189  -70.5560 H         1 UNK         0.1329 
     78 H78       -78.3527   31.8108  -72.5941 H         1 UNK         0.1335 
     79 H79       -76.1978   32.7797  -71.3052 H         1 UNK         0.0680 
     80 H80       -74.8795   31.6531  -71.1238 H         1 UNK         0.0680 
     81 H81       -74.8997   30.4921  -75.0610 H         1 UNK         0.1032 
     82 H82       -75.2577   29.7188  -73.5601 H         1 UNK         0.1032 
     83 H83       -72.6991   31.3414  -73.7196 H         1 UNK         0.0461 
     84 H84       -72.7099   27.8579  -71.4876 H         1 UNK         0.3453 
     85 H85       -73.2518   27.7983  -73.1533 H         1 UNK         0.3453 
     86 H86       -73.1010   29.0166  -75.4245 H         1 UNK         0.2984 
     87 H87       -71.3749   29.4143  -77.3221 H         1 UNK         0.0554 
     88 H88       -69.0384   28.6361  -77.7504 H         1 UNK         0.0847 
     89 H89       -68.6424   28.8726  -76.0485 H         1 UNK         0.0847 
     90 H90       -69.0826   30.2449  -77.0482 H         1 UNK         0.0847 
     91 H91       -71.9308   27.3229  -77.0120 H         1 UNK         0.3141 
     92 H92       -70.4134   24.5886  -76.0784 H         1 UNK         0.0743 
     93 H93       -72.4129   25.2837  -73.8633 H         1 UNK         0.0784 
     94 H94       -71.9944   23.6518  -74.3845 H         1 UNK         0.0784 
     95 H95       -70.7835   24.6730  -73.6326 H         1 UNK         0.0784 
     96 H96       -73.2725   24.9944  -76.1965 H         1 UNK         0.3213 
     97 H97       -73.4244   25.7136  -79.6564 H         1 UNK         0.0855 
     98 H98       -74.2646   23.1271  -78.2422 H         1 UNK         0.0814 
     99 H99       -73.2906   23.2249  -79.7017 H         1 UNK         0.0814 
    100 H100      -74.9639   23.7582  -79.7328 H         1 UNK         0.0814 
    101 H101      -75.5313   25.2908  -77.8385 H         1 UNK         0.3105 
    102 H102      -75.5925   28.5713  -76.3526 H         1 UNK         0.0547 
    103 H103      -76.8906   28.6113  -78.4577 H         1 UNK         0.0837 
    104 H104      -77.4431   26.9664  -78.1932 H         1 UNK         0.0837 
    105 H105      -77.9428   28.2533  -77.0978 H         1 UNK         0.0837 
    106 H106      -77.0705   26.1726  -75.8072 H         1 UNK         0.3020 
    107 H107      -74.8945   24.8578  -73.3397 H         1 UNK         0.1245 
    108 H108      -77.3468   24.9196  -72.2444 H         1 UNK         0.0781 
    109 H109      -77.4003   26.5280  -72.9083 H         1 UNK         0.0781 
    110 H110      -76.5171   27.4100  -69.1989 H         1 UNK         0.0836 
    111 H111      -77.8129   26.5545  -69.9972 H         1 UNK         0.0836 
    112 H112      -77.4498   24.1627  -74.5385 H         1 UNK         0.3022 
    113 H113      -75.9776   21.9913  -76.9570 H         1 UNK         0.0747 
    114 H114      -77.2678   20.2226  -75.7904 H         1 UNK         0.0793 
    115 H115      -75.8150   20.6057  -74.8831 H         1 UNK         0.0793 
    116 H116      -77.3704   21.2157  -74.3355 H         1 UNK         0.0793 
    117 H117      -78.6804   22.3453  -76.1337 H         1 UNK         0.3047 
    118 H118      -79.4066   25.3322  -77.8576 H         1 UNK         0.0822 
    119 H119      -81.0449   23.9705  -79.1250 H         1 UNK         0.0807 
    120 H120      -80.1757   22.4894  -78.7196 H         1 UNK         0.0807 
    121 H121      -79.4297   23.6990  -79.7547 H         1 UNK         0.0807 
    122 H122      -81.1846   23.5355  -76.6549 H         1 UNK         0.2946 
    123 H123      -82.0208   23.7298  -74.6615 H         1 UNK         0.1144 
    124 H124      -79.8014   24.0706  -72.5656 H         1 UNK         0.0793 
    125 H125      -80.1619   22.5839  -73.4324 H         1 UNK         0.0793 
    126 H126      -81.3431   23.2524  -72.3188 H         1 UNK         0.0793 
    127 H127      -81.4542   25.8661  -72.7868 H         1 UNK         0.2896 
@<TRIPOS>BOND
     1    1    2 1    
     2    1   67 1    
     3    1   68 1    
     4    1   69 1    
     5    2    3 2    
     6    2    4 am   BACKBONE|DICT|INTERRES
     7    4    5 1    
     8    4   70 1    
     9    5    6 1    
    10    5   65 1    
    11    5   71 1    
    12    6    7 1    
    13    6   72 1    
    14    6   73 1    
    15    7    8 1    
    16    8    9 1    
    17    8   74 1    
    18    8   75 1    
    19    9   10 ar   
    20    9   14 ar   
    21   10   11 ar   
    22   10   76 1    
    23   11   12 ar   
    24   11   48 1    
    25   12   13 ar   
    26   12   77 1    
    27   13   14 ar   
    28   13   15 1    
    29   14   78 1    
    30   15   16 1    
    31   15   79 1    
    32   15   80 1    
    33   16   17 1    
    34   17   18 1    
    35   17   81 1    
    36   17   82 1    
    37   18   19 1    
    38   18   22 1    
    39   18   83 1    
    40   19   20 am   BACKBONE|DICT|INTERRES
    41   19   21 2    
    42   20   84 1    
    43   20   85 1    
    44   22   23 am   BACKBONE|DICT|INTERRES
    45   22   86 1    
    46   23   24 2    
    47   23   25 1    
    48   25   26 1    
    49   25   27 1    
    50   25   87 1    
    51   26   88 1    
    52   26   89 1    
    53   26   90 1    
    54   27   28 am   BACKBONE|DICT|INTERRES
    55   27   91 1    
    56   28   29 2    
    57   28   30 1    
    58   30   31 1    
    59   30   32 1    
    60   30   92 1    
    61   31   93 1    
    62   31   94 1    
    63   31   95 1    
    64   32   33 am   BACKBONE|DICT|INTERRES
    65   32   96 1    
    66   33   34 2    
    67   33   35 1    
    68   35   36 1    
    69   35   37 1    
    70   35   97 1    
    71   36   98 1    
    72   36   99 1    
    73   36  100 1    
    74   37   38 am   BACKBONE|DICT|INTERRES
    75   37  101 1    
    76   38   39 2    
    77   38   40 1    
    78   40   41 1    
    79   40   42 1    
    80   40  102 1    
    81   41  103 1    
    82   41  104 1    
    83   41  105 1    
    84   42   43 am   BACKBONE|DICT|INTERRES
    85   42  106 1    
    86   43   44 2    
    87   43   45 1    
    88   45   46 1    
    89   45   49 1    
    90   45  107 1    
    91   46   47 1    
    92   46  108 1    
    93   46  109 1    
    94   47   48 1    
    95   48  110 1    
    96   48  111 1    
    97   49   50 am   BACKBONE|DICT|INTERRES
    98   49  112 1    
    99   50   51 2    
   100   50   52 1    
   101   52   53 1    
   102   52   54 1    
   103   52  113 1    
   104   53  114 1    
   105   53  115 1    
   106   53  116 1    
   107   54   55 am   BACKBONE|DICT|INTERRES
   108   54  117 1    
   109   55   56 2    
   110   55   57 1    
   111   57   58 1    
   112   57   59 1    
   113   57  118 1    
   114   58  119 1    
   115   58  120 1    
   116   58  121 1    
   117   59   60 am   BACKBONE|DICT|INTERRES
   118   59  122 1    
   119   60   61 2    
   120   60   62 1    
   121   62   63 1    
   122   62   64 1    
   123   62  123 1    
   124   63  124 1    
   125   63  125 1    
   126   63  126 1    
   127   64   65 am   BACKBONE|DICT|INTERRES
   128   64  127 1    
   129   65   66 2    
@<TRIPOS>SUBSTRUCTURE
     1 UNK         1 GROUP             0       ****    0 ROOT    
