@<TRIPOS>MOLECULE
3R135
127   129    1
SMALL
USER_CHARGES


@<TRIPOS>ATOM
      1 CA        -78.4569   25.6767  -70.1772 C.3       0 UNK        -0.1998 
      2 C         -79.9545   25.7934  -70.4026 C.2       0 UNK         0.4909 
      3 O         -80.7043   24.8859  -70.0401 O.2       0 UNK        -0.5240 
      4 N         -80.4002   26.9002  -71.0103 N.am      1 UNK        -0.4739 
      5 CA        -81.8129   27.2211  -71.2561 C.3       1 UNK         0.0864 
      6 C6        -82.0711   28.7501  -71.3694 C.3       11 UNK        -0.0881 
      7 S7        -81.3362   29.7181  -70.0019 S.3       11 UNK        -0.2682 
      8 C8        -80.0878   30.7302  -70.8678 C.3       11 UNK         0.0289 
      9 C9        -78.9919   29.8792  -71.4949 C.ar      11 UNK        -0.0687 
     10 C10       -79.0673   29.5228  -72.8444 C.ar      11 UNK        -0.0823 
     11 C11       -78.0972   28.6974  -73.4135 C.ar      11 UNK        -0.0830 
     12 C12       -77.0336   28.2431  -72.6314 C.ar      11 UNK        -0.1021 
     13 C13       -76.9059   28.6478  -71.2985 C.ar      11 UNK        -0.0753 
     14 C14       -77.9009   29.4515  -70.7309 C.ar      11 UNK        -0.0933 
     15 C15       -75.7065   28.2118  -70.4615 C.3       11 UNK         0.0166 
     16 S16       -74.1116   28.3588  -71.3383 S.3       11 UNK        -0.2615 
     17 C17       -74.0116   30.1524  -71.6776 C.3       11 UNK        -0.0865 
     18 CA        -74.3103   30.5225  -73.1628 C.3       10 UNK         0.0862 
     19 C         -74.3487   32.0630  -73.4023 C.2       10 UNK         0.5551 
     20 N         -74.0082   32.5525  -74.5886 N.am      10 UNK        -0.7319 
     21 O         -74.7161   32.8278  -72.5134 O.2       10 UNK        -0.5018 
     22 N         -73.4936   29.7683  -74.1345 N.am      10 UNK        -0.4509 
     23 C         -72.1604   29.8244  -74.2656 C.2       10 UNK         0.4899 
     24 O         -71.4286   30.5412  -73.5806 O.2       10 UNK        -0.4839 
     25 CA        -71.5553   28.9271  -75.3640 C.3       9 UNK         0.0222 
     26 CB        -70.0122   28.8827  -75.3393 C.3       9 UNK        -0.1966 
     27 N         -72.1270   27.5745  -75.3638 N.am      9 UNK        -0.4218 
     28 C         -72.0492   26.6593  -74.3835 C.2       9 UNK         0.5020 
     29 O         -71.4165   26.8142  -73.3384 O.2       9 UNK        -0.5274 
     30 CA        -72.8040   25.3354  -74.6011 C.3       8 UNK         0.0270 
     31 CB        -74.2433   25.4403  -74.0696 C.3       8 UNK        -0.1976 
     32 N         -72.8271   24.8874  -75.9968 N.am      8 UNK        -0.4313 
     33 C         -71.7534   24.4562  -76.6761 C.2       8 UNK         0.5041 
     34 O         -70.6152   24.4135  -76.2077 O.2       8 UNK        -0.5577 
     35 CA        -71.9871   23.9862  -78.1193 C.3       7 UNK         0.0284 
     36 CB        -72.5743   22.5647  -78.1414 C.3       7 UNK        -0.1958 
     37 N         -72.8805   24.8981  -78.8332 N.am      7 UNK        -0.4454 
     38 C         -72.4699   25.9477  -79.5590 C.2       7 UNK         0.5089 
     39 O         -71.2867   26.2188  -79.7656 O.2       7 UNK        -0.5125 
     40 CA        -73.5606   26.8582  -80.1571 C.3       6 UNK         0.0408 
     41 CB        -73.8865   26.4288  -81.5963 C.3       6 UNK        -0.1791 
     42 N         -74.7961   26.8873  -79.3690 N.am      6 UNK        -0.4762 
     43 C         -74.8946   27.3887  -78.1297 C.2       6 UNK         0.5007 
     44 O         -73.9621   27.9265  -77.5329 O.2       6 UNK        -0.5032 
     45 CA        -76.2347   27.1905  -77.3985 C.3       5 UNK         0.0783 
     46 C46       -77.1427   28.4476  -77.4530 C.3       11 UNK        -0.0857 
     47 S47       -77.0855   29.3613  -75.8814 S.3       11 UNK        -0.2512 
     48 C48       -78.1829   28.3104  -74.8775 C.3       11 UNK         0.0225 
     49 N         -76.9588   25.9740  -77.7794 N.am      5 UNK        -0.4615 
     50 C         -76.5034   24.7321  -77.5847 C.2       4 UNK         0.5053 
     51 O         -75.3542   24.4751  -77.2199 O.2       4 UNK        -0.5105 
     52 CA        -77.5191   23.5952  -77.7652 C.3       4 UNK         0.0263 
     53 CB        -76.8785   22.3721  -78.4446 C.3       4 UNK        -0.1981 
     54 N         -78.0511   23.2025  -76.4592 N.am      4 UNK        -0.4224 
     55 C         -78.8690   23.9499  -75.7040 C.2       3 UNK         0.4895 
     56 O         -79.3545   25.0246  -76.0664 O.2       3 UNK        -0.5091 
     57 CA        -79.1280   23.4290  -74.2800 C.3       3 UNK         0.0250 
     58 CB        -77.9792   23.8570  -73.3509 C.3       3 UNK        -0.1996 
     59 N         -80.3914   23.9101  -73.7164 N.am      3 UNK        -0.4254 
     60 C         -81.6155   23.5705  -74.1452 C.2       2 UNK         0.5004 
     61 O         -81.8176   22.7844  -75.0723 O.2       2 UNK        -0.5226 
     62 CA        -82.8225   24.1733  -73.3987 C.3       2 UNK         0.0269 
     63 CB        -83.6761   23.0618  -72.7629 C.3       2 UNK        -0.1926 
     64 N         -82.4273   25.1139  -72.3447 N.am      2 UNK        -0.4687 
     65 C         -82.3369   26.4419  -72.4841 C.2       1 UNK         0.5165 
     66 O         -82.6109   27.0338  -73.5295 O.2       1 UNK        -0.5079 
     67 H67       -78.1472   26.3307  -69.3627 H         1 UNK         0.0900 
     68 H68       -77.9058   25.9515  -71.0745 H         1 UNK         0.0900 
     69 H69       -78.1843   24.6545  -69.9157 H         1 UNK         0.0900 
     70 H70       -79.7421   27.6179  -71.2867 H         1 UNK         0.2959 
     71 H71       -82.3896   26.8727  -70.3958 H         1 UNK         0.1079 
     72 H72       -81.7185   29.1421  -72.3222 H         1 UNK         0.0837 
     73 H73       -83.1461   28.9392  -71.3644 H         1 UNK         0.0837 
     74 H74       -79.6458   31.4286  -70.1556 H         1 UNK         0.0685 
     75 H75       -80.5802   31.3418  -71.6255 H         1 UNK         0.0685 
     76 H76       -79.8858   29.8805  -73.4539 H         1 UNK         0.1434 
     77 H77       -76.2783   27.6097  -73.0749 H         1 UNK         0.1329 
     78 H78       -77.8300   29.7458  -69.6925 H         1 UNK         0.1335 
     79 H79       -75.6493   28.7900  -69.5379 H         1 UNK         0.0680 
     80 H80       -75.8421   27.1712  -70.1665 H         1 UNK         0.0680 
     81 H81       -73.0155   30.4967  -71.3961 H         1 UNK         0.1032 
     82 H82       -74.7027   30.6703  -71.0102 H         1 UNK         0.1032 
     83 H83       -75.3339   30.2128  -73.3653 H         1 UNK         0.0461 
     84 H84       -74.0430   33.5479  -74.7420 H         1 UNK         0.3453 
     85 H85       -73.7189   31.9353  -75.3299 H         1 UNK         0.3453 
     86 H86       -74.0093   29.1678  -74.7604 H         1 UNK         0.2984 
     87 H87       -71.8494   29.3753  -76.3141 H         1 UNK         0.0554 
     88 H88       -69.6211   28.2513  -76.1371 H         1 UNK         0.0847 
     89 H89       -69.6309   28.5009  -74.3918 H         1 UNK         0.0847 
     90 H90       -69.5915   29.8792  -75.4788 H         1 UNK         0.0847 
     91 H91       -72.7044   27.3649  -76.1736 H         1 UNK         0.3141 
     92 H92       -72.2889   24.5667  -74.0209 H         1 UNK         0.0743 
     93 H93       -74.8013   26.2308  -74.5679 H         1 UNK         0.0784 
     94 H94       -74.7874   24.5056  -74.2048 H         1 UNK         0.0784 
     95 H95       -74.2465   25.6665  -73.0024 H         1 UNK         0.0784 
     96 H96       -73.7396   24.8211  -76.4442 H         1 UNK         0.3213 
     97 H97       -71.0179   23.9532  -78.6223 H         1 UNK         0.0855 
     98 H98       -73.5412   22.5125  -77.6401 H         1 UNK         0.0814 
     99 H99       -71.9091   21.8624  -77.6372 H         1 UNK         0.0814 
    100 H100      -72.7077   22.2076  -79.1626 H         1 UNK         0.0814 
    101 H101      -73.8728   24.7770  -78.6709 H         1 UNK         0.3105 
    102 H102      -73.1596   27.8737  -80.1873 H         1 UNK         0.0547 
    103 H103      -72.9876   26.4250  -82.2146 H         1 UNK         0.0837 
    104 H104      -74.3105   25.4246  -81.6333 H         1 UNK         0.0837 
    105 H105      -74.5954   27.1118  -82.0645 H         1 UNK         0.0837 
    106 H106      -75.6130   26.4543  -79.7763 H         1 UNK         0.3020 
    107 H107      -75.9471   27.0160  -76.3614 H         1 UNK         0.1245 
    108 H108      -76.8630   29.1256  -78.2622 H         1 UNK         0.0781 
    109 H109      -78.1837   28.1838  -77.6482 H         1 UNK         0.0781 
    110 H110      -79.2075   28.3982  -75.2427 H         1 UNK         0.0836 
    111 H111      -77.9096   27.2601  -74.9889 H         1 UNK         0.0836 
    112 H112      -77.9287   26.0911  -78.0373 H         1 UNK         0.3022 
    113 H113      -78.3416   23.9445  -78.3931 H         1 UNK         0.0747 
    114 H114      -77.6148   21.5882  -78.6234 H         1 UNK         0.0793 
    115 H115      -76.4521   22.6418  -79.4117 H         1 UNK         0.0793 
    116 H116      -76.0752   21.9446  -77.8430 H         1 UNK         0.0793 
    117 H117      -77.6730   22.3533  -76.0648 H         1 UNK         0.3047 
    118 H118      -79.1710   22.3381  -74.3109 H         1 UNK         0.0822 
    119 H119      -78.1292   23.4882  -72.3361 H         1 UNK         0.0807 
    120 H120      -77.8804   24.9426  -73.3078 H         1 UNK         0.0807 
    121 H121      -77.0248   23.4588  -73.6974 H         1 UNK         0.0807 
    122 H122      -80.3298   24.5825  -72.9679 H         1 UNK         0.2946 
    123 H123      -83.4329   24.6884  -74.1443 H         1 UNK         0.1144 
    124 H124      -84.0294   22.3568  -73.5168 H         1 UNK         0.0793 
    125 H125      -84.5574   23.4724  -72.2697 H         1 UNK         0.0793 
    126 H126      -83.1115   22.4930  -72.0230 H         1 UNK         0.0793 
    127 H127      -82.1128   24.7147  -71.4645 H         1 UNK         0.2896 
@<TRIPOS>BOND
     1    1    2 1    
     2    1   67 1    
     3    1   68 1    
     4    1   69 1    
     5    2    3 2    
     6    2    4 am   BACKBONE|DICT|INTERRES
     7    4    5 1    
     8    4   70 1    
     9    5    6 1    
    10    5   65 1    
    11    5   71 1    
    12    6    7 1    
    13    6   72 1    
    14    6   73 1    
    15    7    8 1    
    16    8    9 1    
    17    8   74 1    
    18    8   75 1    
    19    9   10 ar   
    20    9   14 ar   
    21   10   11 ar   
    22   10   76 1    
    23   11   12 ar   
    24   11   48 1    
    25   12   13 ar   
    26   12   77 1    
    27   13   14 ar   
    28   13   15 1    
    29   14   78 1    
    30   15   16 1    
    31   15   79 1    
    32   15   80 1    
    33   16   17 1    
    34   17   18 1    
    35   17   81 1    
    36   17   82 1    
    37   18   19 1    
    38   18   22 1    
    39   18   83 1    
    40   19   20 am   BACKBONE|DICT|INTERRES
    41   19   21 2    
    42   20   84 1    
    43   20   85 1    
    44   22   23 am   BACKBONE|DICT|INTERRES
    45   22   86 1    
    46   23   24 2    
    47   23   25 1    
    48   25   26 1    
    49   25   27 1    
    50   25   87 1    
    51   26   88 1    
    52   26   89 1    
    53   26   90 1    
    54   27   28 am   BACKBONE|DICT|INTERRES
    55   27   91 1    
    56   28   29 2    
    57   28   30 1    
    58   30   31 1    
    59   30   32 1    
    60   30   92 1    
    61   31   93 1    
    62   31   94 1    
    63   31   95 1    
    64   32   33 am   BACKBONE|DICT|INTERRES
    65   32   96 1    
    66   33   34 2    
    67   33   35 1    
    68   35   36 1    
    69   35   37 1    
    70   35   97 1    
    71   36   98 1    
    72   36   99 1    
    73   36  100 1    
    74   37   38 am   BACKBONE|DICT|INTERRES
    75   37  101 1    
    76   38   39 2    
    77   38   40 1    
    78   40   41 1    
    79   40   42 1    
    80   40  102 1    
    81   41  103 1    
    82   41  104 1    
    83   41  105 1    
    84   42   43 am   BACKBONE|DICT|INTERRES
    85   42  106 1    
    86   43   44 2    
    87   43   45 1    
    88   45   46 1    
    89   45   49 1    
    90   45  107 1    
    91   46   47 1    
    92   46  108 1    
    93   46  109 1    
    94   47   48 1    
    95   48  110 1    
    96   48  111 1    
    97   49   50 am   BACKBONE|DICT|INTERRES
    98   49  112 1    
    99   50   51 2    
   100   50   52 1    
   101   52   53 1    
   102   52   54 1    
   103   52  113 1    
   104   53  114 1    
   105   53  115 1    
   106   53  116 1    
   107   54   55 am   BACKBONE|DICT|INTERRES
   108   54  117 1    
   109   55   56 2    
   110   55   57 1    
   111   57   58 1    
   112   57   59 1    
   113   57  118 1    
   114   58  119 1    
   115   58  120 1    
   116   58  121 1    
   117   59   60 am   BACKBONE|DICT|INTERRES
   118   59  122 1    
   119   60   61 2    
   120   60   62 1    
   121   62   63 1    
   122   62   64 1    
   123   62  123 1    
   124   63  124 1    
   125   63  125 1    
   126   63  126 1    
   127   64   65 am   BACKBONE|DICT|INTERRES
   128   64  127 1    
   129   65   66 2    
@<TRIPOS>SUBSTRUCTURE
     1 UNK         1 GROUP             0       ****    0 ROOT    
