@<TRIPOS>MOLECULE
3R135
127   129    1
SMALL
USER_CHARGES


@<TRIPOS>ATOM
      1 CA        -83.7700   27.7718  -70.3403 C.3       0 UNK        -0.1998 
      2 C         -83.0825   27.5779  -71.6830 C.2       0 UNK         0.4909 
      3 O         -81.8950   27.2624  -71.7111 O.2       0 UNK        -0.5240 
      4 N         -83.8322   27.7478  -72.7812 N.am      1 UNK        -0.4739 
      5 CA        -83.4577   27.6736  -74.2056 C.3       1 UNK         0.0864 
      6 C6        -82.5733   28.8648  -74.6900 C.3       11 UNK        -0.0881 
      7 S7        -80.7617   28.6194  -74.6676 S.3       11 UNK        -0.2682 
      8 C8        -80.2358   29.7436  -73.3415 C.3       11 UNK         0.0289 
      9 C9        -78.8249   29.3999  -72.8936 C.ar      11 UNK        -0.0687 
     10 C10       -78.6274   28.4699  -71.8704 C.ar      11 UNK        -0.0823 
     11 C11       -77.3372   28.1144  -71.4699 C.ar      11 UNK        -0.0830 
     12 C12       -76.2367   28.7026  -72.1007 C.ar      11 UNK        -0.1021 
     13 C13       -76.4208   29.6332  -73.1282 C.ar      11 UNK        -0.0753 
     14 C14       -77.7182   29.9840  -73.5155 C.ar      11 UNK        -0.0933 
     15 C15       -75.2247   30.2205  -73.8605 C.3       11 UNK         0.0166 
     16 S16       -74.4598   31.5920  -72.9396 S.3       11 UNK        -0.2615 
     17 C17       -73.0879   30.7487  -72.0746 C.3       11 UNK        -0.0865 
     18 CA        -71.7451   30.8652  -72.8458 C.3       10 UNK         0.0862 
     19 C         -70.5491   30.3341  -72.0004 C.2       10 UNK         0.5551 
     20 N         -69.7463   29.3909  -72.4814 N.am      10 UNK        -0.7319 
     21 O         -70.3387   30.7974  -70.8822 O.2       10 UNK        -0.5018 
     22 N         -71.8460   30.2584  -74.1808 N.am      10 UNK        -0.4509 
     23 C         -71.1542   30.6322  -75.2620 C.2       10 UNK         0.4899 
     24 O         -70.3784   31.5891  -75.2852 O.2       10 UNK        -0.4839 
     25 CA        -71.3737   29.7773  -76.5273 C.3       9 UNK         0.0222 
     26 CB        -70.2246   29.9166  -77.5480 C.3       9 UNK        -0.1966 
     27 N         -71.6402   28.3596  -76.2383 N.am      9 UNK        -0.4218 
     28 C         -70.8397   27.5045  -75.5764 C.2       9 UNK         0.5020 
     29 O         -69.7638   27.8331  -75.0738 O.2       9 UNK        -0.5274 
     30 CA        -71.3152   26.0485  -75.4022 C.3       8 UNK         0.0270 
     31 CB        -71.5646   25.7390  -73.9160 C.3       8 UNK        -0.1976 
     32 N         -72.5183   25.7332  -76.1788 N.am      8 UNK        -0.4313 
     33 C         -72.5197   25.5084  -77.5024 C.2       8 UNK         0.5041 
     34 O         -71.4909   25.4589  -78.1781 O.2       8 UNK        -0.5577 
     35 CA        -73.8760   25.3313  -78.2149 C.3       7 UNK         0.0284 
     36 CB        -74.1037   23.8513  -78.5642 C.3       7 UNK        -0.1958 
     37 N         -75.0393   25.8326  -77.4771 N.am      7 UNK        -0.4454 
     38 C         -75.2312   27.0947  -77.0668 C.2       7 UNK         0.5089 
     39 O         -74.4406   28.0149  -77.2809 O.2       7 UNK        -0.5125 
     40 CA        -76.4766   27.3480  -76.1977 C.3       6 UNK         0.0408 
     41 CB        -77.7105   27.5862  -77.0784 C.3       6 UNK        -0.1791 
     42 N         -76.7445   26.2673  -75.2393 N.am      6 UNK        -0.4762 
     43 C         -75.8727   25.8334  -74.3133 C.2       6 UNK         0.5007 
     44 O         -74.7480   26.3114  -74.1651 O.2       6 UNK        -0.5032 
     45 CA        -76.2855   24.6091  -73.4756 C.3       5 UNK         0.0783 
     46 C46       -77.1818   24.9769  -72.2680 C.3       11 UNK        -0.0857 
     47 S47       -76.1915   25.6305  -70.8801 S.3       11 UNK        -0.2512 
     48 C48       -77.1444   27.0932  -70.3563 C.3       11 UNK         0.0225 
     49 N         -76.9078   23.6026  -74.3359 N.am      5 UNK        -0.4615 
     50 C         -76.2207   22.7125  -75.0656 C.2       4 UNK         0.5053 
     51 O         -74.9972   22.5888  -75.0161 O.2       4 UNK        -0.5105 
     52 CA        -77.0218   21.8091  -76.0214 C.3       4 UNK         0.0263 
     53 CB        -77.3506   20.4698  -75.3429 C.3       4 UNK        -0.1981 
     54 N         -78.2608   22.4228  -76.5046 N.am      4 UNK        -0.4224 
     55 C         -78.3173   23.4974  -77.3039 C.2       3 UNK         0.4895 
     56 O         -77.3256   24.0620  -77.7633 O.2       3 UNK        -0.5091 
     57 CA        -79.7150   24.0709  -77.5961 C.3       3 UNK         0.0250 
     58 CB        -80.3209   23.4023  -78.8399 C.3       3 UNK        -0.1996 
     59 N         -80.6548   23.9639  -76.4729 N.am      3 UNK        -0.4254 
     60 C         -80.4564   24.4800  -75.2515 C.2       2 UNK         0.5004 
     61 O         -79.4240   25.0643  -74.9134 O.2       2 UNK        -0.5226 
     62 CA        -81.5831   24.2822  -74.2261 C.3       2 UNK         0.0269 
     63 CB        -81.0450   23.6373  -72.9373 C.3       2 UNK        -0.1926 
     64 N         -82.2046   25.5613  -73.8944 N.am      2 UNK        -0.4687 
     65 C         -82.9878   26.2833  -74.7040 C.2       1 UNK         0.5165 
     66 O         -83.3643   25.8826  -75.8072 O.2       1 UNK        -0.5079 
     67 H67       -84.8188   28.0464  -70.4523 H         1 UNK         0.0900 
     68 H68       -83.2717   28.5597  -69.7760 H         1 UNK         0.0900 
     69 H69       -83.7200   26.8522  -69.7579 H         1 UNK         0.0900 
     70 H70       -84.8092   27.9646  -72.6381 H         1 UNK         0.2959 
     71 H71       -84.4195   27.8123  -74.7033 H         1 UNK         0.1079 
     72 H72       -82.8281   29.7728  -74.1412 H         1 UNK         0.0837 
     73 H73       -82.8302   29.0848  -75.7275 H         1 UNK         0.0837 
     74 H74       -80.2855   30.7741  -73.6963 H         1 UNK         0.0685 
     75 H75       -80.9226   29.6713  -72.4974 H         1 UNK         0.0685 
     76 H76       -79.4838   28.0109  -71.3968 H         1 UNK         0.1434 
     77 H77       -75.2385   28.4111  -71.8073 H         1 UNK         0.1329 
     78 H78       -77.8688   30.6924  -74.3185 H         1 UNK         0.1335 
     79 H79       -75.5320   30.5953  -74.8381 H         1 UNK         0.0680 
     80 H80       -74.4978   29.4330  -74.0617 H         1 UNK         0.0680 
     81 H81       -73.0003   31.2095  -71.0888 H         1 UNK         0.1032 
     82 H82       -73.3386   29.7034  -71.8922 H         1 UNK         0.1032 
     83 H83       -71.5474   31.9304  -72.9808 H         1 UNK         0.0461 
     84 H84       -69.8780   29.0064  -73.4101 H         1 UNK         0.3453 
     85 H85       -68.9774   29.0695  -71.9155 H         1 UNK         0.3453 
     86 H86       -72.4361   29.4446  -74.2548 H         1 UNK         0.2984 
     87 H87       -72.2798   30.1626  -76.9970 H         1 UNK         0.0554 
     88 H88       -70.4112   29.3177  -78.4394 H         1 UNK         0.0847 
     89 H89       -69.2692   29.6021  -77.1266 H         1 UNK         0.0847 
     90 H90       -70.1113   30.9515  -77.8730 H         1 UNK         0.0847 
     91 H91       -72.5288   28.0125  -76.5885 H         1 UNK         0.3141 
     92 H92       -70.5059   25.4008  -75.7460 H         1 UNK         0.0743 
     93 H93       -71.9589   24.7322  -73.7763 H         1 UNK         0.0784 
     94 H94       -70.6370   25.8057  -73.3459 H         1 UNK         0.0784 
     95 H95       -72.2660   26.4420  -73.4662 H         1 UNK         0.0784 
     96 H96       -73.4019   25.7814  -75.6811 H         1 UNK         0.3213 
     97 H97       -73.8190   25.8970  -79.1470 H         1 UNK         0.0855 
     98 H98       -73.2625   23.4460  -79.1283 H         1 UNK         0.0814 
     99 H99       -74.9946   23.7204  -79.1785 H         1 UNK         0.0814 
    100 H100      -74.2208   23.2407  -77.6682 H         1 UNK         0.0814 
    101 H101      -75.7861   25.1632  -77.3080 H         1 UNK         0.3105 
    102 H102      -76.2979   28.2531  -75.6184 H         1 UNK         0.0547 
    103 H103      -77.5790   28.4751  -77.6963 H         1 UNK         0.0837 
    104 H104      -77.8945   26.7492  -77.7508 H         1 UNK         0.0837 
    105 H105      -78.6058   27.7379  -76.4768 H         1 UNK         0.0837 
    106 H106      -77.6674   25.8412  -75.2692 H         1 UNK         0.3020 
    107 H107      -75.3632   24.1765  -73.0793 H         1 UNK         0.1245 
    108 H108      -77.6910   24.0862  -71.8967 H         1 UNK         0.0781 
    109 H109      -77.9733   25.6711  -72.5560 H         1 UNK         0.0781 
    110 H110      -76.6250   27.5720  -69.5252 H         1 UNK         0.0836 
    111 H111      -78.1061   26.7589  -69.9634 H         1 UNK         0.0836 
    112 H112      -77.9041   23.7046  -74.4860 H         1 UNK         0.3022 
    113 H113      -76.3883   21.6083  -76.8882 H         1 UNK         0.0747 
    114 H114      -77.8453   19.7857  -76.0326 H         1 UNK         0.0793 
    115 H115      -76.4420   19.9754  -74.9958 H         1 UNK         0.0793 
    116 H116      -77.9998   20.6035  -74.4765 H         1 UNK         0.0793 
    117 H117      -79.1283   22.0234  -76.1775 H         1 UNK         0.3047 
    118 H118      -79.5930   25.1339  -77.8097 H         1 UNK         0.0822 
    119 H119      -80.5084   22.3399  -78.6786 H         1 UNK         0.0807 
    120 H120      -79.6489   23.4885  -79.6952 H         1 UNK         0.0807 
    121 H121      -81.2633   23.8712  -79.1237 H         1 UNK         0.0807 
    122 H122      -81.5386   23.5161  -76.6702 H         1 UNK         0.2946 
    123 H123      -82.3456   23.6236  -74.6477 H         1 UNK         0.1144 
    124 H124      -80.5536   22.6868  -73.1488 H         1 UNK         0.0793 
    125 H125      -80.3173   24.2792  -72.4384 H         1 UNK         0.0793 
    126 H126      -81.8501   23.4367  -72.2302 H         1 UNK         0.0793 
    127 H127      -81.9062   26.0152  -73.0330 H         1 UNK         0.2896 
@<TRIPOS>BOND
     1    1    2 1    
     2    1   67 1    
     3    1   68 1    
     4    1   69 1    
     5    2    3 2    
     6    2    4 am   BACKBONE|DICT|INTERRES
     7    4    5 1    
     8    4   70 1    
     9    5    6 1    
    10    5   65 1    
    11    5   71 1    
    12    6    7 1    
    13    6   72 1    
    14    6   73 1    
    15    7    8 1    
    16    8    9 1    
    17    8   74 1    
    18    8   75 1    
    19    9   10 ar   
    20    9   14 ar   
    21   10   11 ar   
    22   10   76 1    
    23   11   12 ar   
    24   11   48 1    
    25   12   13 ar   
    26   12   77 1    
    27   13   14 ar   
    28   13   15 1    
    29   14   78 1    
    30   15   16 1    
    31   15   79 1    
    32   15   80 1    
    33   16   17 1    
    34   17   18 1    
    35   17   81 1    
    36   17   82 1    
    37   18   19 1    
    38   18   22 1    
    39   18   83 1    
    40   19   20 am   BACKBONE|DICT|INTERRES
    41   19   21 2    
    42   20   84 1    
    43   20   85 1    
    44   22   23 am   BACKBONE|DICT|INTERRES
    45   22   86 1    
    46   23   24 2    
    47   23   25 1    
    48   25   26 1    
    49   25   27 1    
    50   25   87 1    
    51   26   88 1    
    52   26   89 1    
    53   26   90 1    
    54   27   28 am   BACKBONE|DICT|INTERRES
    55   27   91 1    
    56   28   29 2    
    57   28   30 1    
    58   30   31 1    
    59   30   32 1    
    60   30   92 1    
    61   31   93 1    
    62   31   94 1    
    63   31   95 1    
    64   32   33 am   BACKBONE|DICT|INTERRES
    65   32   96 1    
    66   33   34 2    
    67   33   35 1    
    68   35   36 1    
    69   35   37 1    
    70   35   97 1    
    71   36   98 1    
    72   36   99 1    
    73   36  100 1    
    74   37   38 am   BACKBONE|DICT|INTERRES
    75   37  101 1    
    76   38   39 2    
    77   38   40 1    
    78   40   41 1    
    79   40   42 1    
    80   40  102 1    
    81   41  103 1    
    82   41  104 1    
    83   41  105 1    
    84   42   43 am   BACKBONE|DICT|INTERRES
    85   42  106 1    
    86   43   44 2    
    87   43   45 1    
    88   45   46 1    
    89   45   49 1    
    90   45  107 1    
    91   46   47 1    
    92   46  108 1    
    93   46  109 1    
    94   47   48 1    
    95   48  110 1    
    96   48  111 1    
    97   49   50 am   BACKBONE|DICT|INTERRES
    98   49  112 1    
    99   50   51 2    
   100   50   52 1    
   101   52   53 1    
   102   52   54 1    
   103   52  113 1    
   104   53  114 1    
   105   53  115 1    
   106   53  116 1    
   107   54   55 am   BACKBONE|DICT|INTERRES
   108   54  117 1    
   109   55   56 2    
   110   55   57 1    
   111   57   58 1    
   112   57   59 1    
   113   57  118 1    
   114   58  119 1    
   115   58  120 1    
   116   58  121 1    
   117   59   60 am   BACKBONE|DICT|INTERRES
   118   59  122 1    
   119   60   61 2    
   120   60   62 1    
   121   62   63 1    
   122   62   64 1    
   123   62  123 1    
   124   63  124 1    
   125   63  125 1    
   126   63  126 1    
   127   64   65 am   BACKBONE|DICT|INTERRES
   128   64  127 1    
   129   65   66 2    
@<TRIPOS>SUBSTRUCTURE
     1 UNK         1 GROUP             0       ****    0 ROOT    
