@<TRIPOS>MOLECULE
3R135
127   129    1
SMALL
USER_CHARGES


@<TRIPOS>ATOM
      1 CA        -83.4142   21.9789  -71.7293 C.3       0 UNK        -0.1998 
      2 C         -83.6199   23.4756  -71.9094 C.2       0 UNK         0.4909 
      3 O         -84.7365   23.9105  -72.1948 O.2       0 UNK        -0.5240 
      4 N         -82.5539   24.2674  -71.7369 N.am      1 UNK        -0.4739 
      5 CA        -82.5503   25.7165  -71.9557 C.3       1 UNK         0.0864 
      6 C6        -81.3085   26.3697  -71.3015 C.3       11 UNK        -0.0881 
      7 S7        -81.4805   28.1778  -71.1277 S.3       11 UNK        -0.2682 
      8 C8        -80.2131   28.5328  -69.8746 C.3       11 UNK         0.0289 
      9 C9        -78.8080   28.4205  -70.4462 C.ar      11 UNK        -0.0687 
     10 C10       -78.0779   27.2360  -70.3067 C.ar      11 UNK        -0.0823 
     11 C11       -76.7714   27.1471  -70.7968 C.ar      11 UNK        -0.0830 
     12 C12       -76.1898   28.2605  -71.4087 C.ar      11 UNK        -0.1021 
     13 C13       -76.9230   29.4361  -71.5892 C.ar      11 UNK        -0.0753 
     14 C14       -78.2311   29.5115  -71.1027 C.ar      11 UNK        -0.0933 
     15 C15       -76.3013   30.6311  -72.2941 C.3       11 UNK         0.0166 
     16 S16       -76.5940   30.5877  -74.0929 S.3       11 UNK        -0.2615 
     17 C17       -75.2679   29.4784  -74.6861 C.3       11 UNK        -0.0865 
     18 CA        -74.0537   30.2533  -75.2587 C.3       10 UNK         0.0862 
     19 C         -73.2284   30.9472  -74.1387 C.2       10 UNK         0.5551 
     20 N         -73.2204   32.2723  -74.0937 N.am      10 UNK        -0.7319 
     21 O         -72.6345   30.2870  -73.2893 O.2       10 UNK        -0.5018 
     22 N         -73.2021   29.3699  -76.0648 N.am      10 UNK        -0.4509 
     23 C         -72.2242   29.8029  -76.8743 C.2       10 UNK         0.4899 
     24 O         -72.0423   30.9896  -77.1523 O.2       10 UNK        -0.4839 
     25 CA        -71.2942   28.7252  -77.4642 C.3       9 UNK         0.0222 
     26 CB        -70.0111   29.3051  -78.0963 C.3       9 UNK        -0.1966 
     27 N         -70.9749   27.6750  -76.4916 N.am      9 UNK        -0.4218 
     28 C         -70.3548   27.8041  -75.3067 C.2       9 UNK         0.5020 
     29 O         -69.8371   28.8485  -74.9099 O.2       9 UNK        -0.5274 
     30 CA        -70.3253   26.5655  -74.3900 C.3       8 UNK         0.0270 
     31 CB        -71.2188   26.7949  -73.1577 C.3       8 UNK        -0.1976 
     32 N         -70.7743   25.3524  -75.0784 N.am      8 UNK        -0.4313 
     33 C         -69.9775   24.5293  -75.7748 C.2       8 UNK         0.5041 
     34 O         -68.7525   24.6420  -75.8269 O.2       8 UNK        -0.5577 
     35 CA        -70.6657   23.4057  -76.5738 C.3       7 UNK         0.0284 
     36 CB        -70.7520   22.1221  -75.7324 C.3       7 UNK        -0.1958 
     37 N         -72.0064   23.7687  -77.0467 N.am      7 UNK        -0.4454 
     38 C         -72.2708   24.7383  -77.9351 C.2       7 UNK         0.5089 
     39 O         -71.4028   25.3974  -78.5044 O.2       7 UNK        -0.5125 
     40 CA        -73.7498   25.0793  -78.1822 C.3       6 UNK         0.0408 
     41 CB        -74.2775   24.3316  -79.4159 C.3       6 UNK        -0.1791 
     42 N         -74.6119   24.7898  -77.0336 N.am      6 UNK        -0.4762 
     43 C         -74.5582   25.3895  -75.8368 C.2       6 UNK         0.5007 
     44 O         -73.7590   26.2922  -75.5708 O.2       6 UNK        -0.5032 
     45 CA        -75.5558   24.8760  -74.7706 C.3       5 UNK         0.0783 
     46 C46       -75.2842   25.4858  -73.3736 C.3       11 UNK        -0.0857 
     47 S47       -76.3093   24.7303  -72.0670 S.3       11 UNK        -0.2512 
     48 C48       -75.9896   25.8486  -70.6644 C.3       11 UNK         0.0225 
     49 N         -76.9453   25.0885  -75.1938 N.am      5 UNK        -0.4615 
     50 C         -77.5957   24.4025  -76.1429 C.2       4 UNK         0.5053 
     51 O         -77.0920   23.4569  -76.7522 O.2       4 UNK        -0.5105 
     52 CA        -79.0368   24.8243  -76.4881 C.3       4 UNK         0.0263 
     53 CB        -80.0222   23.6996  -76.1303 C.3       4 UNK        -0.1981 
     54 N         -79.4853   26.0781  -75.8676 N.am      4 UNK        -0.4224 
     55 C         -79.0309   27.3020  -76.1870 C.2       3 UNK         0.4895 
     56 O         -78.1334   27.4921  -77.0091 O.2       3 UNK        -0.5091 
     57 CA        -79.6685   28.5092  -75.4622 C.3       3 UNK         0.0250 
     58 CB        -79.5231   29.8256  -76.2561 C.3       3 UNK        -0.1996 
     59 N         -81.0671   28.2905  -75.0701 N.am      3 UNK        -0.4254 
     60 C         -82.1072   28.0132  -75.8749 C.2       2 UNK         0.5004 
     61 O         -82.0379   27.9955  -77.1050 O.2       2 UNK        -0.5226 
     62 CA        -83.4467   27.6747  -75.1821 C.3       2 UNK         0.0269 
     63 CB        -84.3277   26.7387  -76.0375 C.3       2 UNK        -0.1926 
     64 N         -83.2977   27.1290  -73.8223 N.am      2 UNK        -0.4687 
     65 C         -82.6084   26.0344  -73.4632 C.2       1 UNK         0.5165 
     66 O         -81.9718   25.3349  -74.2536 O.2       1 UNK        -0.5079 
     67 H67       -84.0636   21.6030  -70.9392 H         1 UNK         0.0900 
     68 H68       -82.3846   21.7375  -71.4656 H         1 UNK         0.0900 
     69 H69       -83.6597   21.4536  -72.6518 H         1 UNK         0.0900 
     70 H70       -81.6558   23.8507  -71.5379 H         1 UNK         0.2959 
     71 H71       -83.4481   26.1193  -71.4804 H         1 UNK         0.1079 
     72 H72       -80.3970   26.1425  -71.8591 H         1 UNK         0.0837 
     73 H73       -81.1636   25.9541  -70.3028 H         1 UNK         0.0837 
     74 H74       -80.3722   29.5426  -69.4933 H         1 UNK         0.0685 
     75 H75       -80.3378   27.8653  -69.0205 H         1 UNK         0.0685 
     76 H76       -78.5260   26.3823  -69.8167 H         1 UNK         0.1434 
     77 H77       -75.1682   28.2052  -71.7567 H         1 UNK         0.1329 
     78 H78       -78.7994   30.4231  -71.2283 H         1 UNK         0.1335 
     79 H79       -75.2331   30.6822  -72.0822 H         1 UNK         0.0680 
     80 H80       -76.7284   31.5534  -71.8974 H         1 UNK         0.0680 
     81 H81       -75.7067   28.8525  -75.4655 H         1 UNK         0.1032 
     82 H82       -74.9524   28.7921  -73.9026 H         1 UNK         0.1032 
     83 H83       -74.4406   31.0190  -75.9349 H         1 UNK         0.0461 
     84 H84       -73.7127   32.8172  -74.7842 H         1 UNK         0.3453 
     85 H85       -72.7007   32.7360  -73.3654 H         1 UNK         0.3453 
     86 H86       -73.2731   28.3772  -75.8730 H         1 UNK         0.2984 
     87 H87       -71.8609   28.2392  -78.2597 H         1 UNK         0.0554 
     88 H88       -69.3839   28.5167  -78.5124 H         1 UNK         0.0847 
     89 H89       -69.4159   29.8608  -77.3711 H         1 UNK         0.0847 
     90 H90       -70.2518   29.9897  -78.9105 H         1 UNK         0.0847 
     91 H91       -71.3169   26.7560  -76.7375 H         1 UNK         0.3141 
     92 H92       -69.2972   26.4322  -74.0464 H         1 UNK         0.0743 
     93 H93       -72.2543   26.9922  -73.4375 H         1 UNK         0.0784 
     94 H94       -71.2071   25.9336  -72.4896 H         1 UNK         0.0784 
     95 H95       -70.8742   27.6556  -72.5826 H         1 UNK         0.0784 
     96 H96       -71.7738   25.1996  -75.1040 H         1 UNK         0.3213 
     97 H97       -70.0466   23.2010  -77.4502 H         1 UNK         0.0855 
     98 H98       -71.3766   22.2570  -74.8484 H         1 UNK         0.0814 
     99 H99       -69.7631   21.8156  -75.3879 H         1 UNK         0.0814 
    100 H100      -71.1611   21.2939  -76.3113 H         1 UNK         0.0814 
    101 H101      -72.7867   23.2683  -76.6463 H         1 UNK         0.3105 
    102 H102      -73.8110   26.1516  -78.3799 H         1 UNK         0.0547 
    103 H103      -74.2650   23.2507  -79.2704 H         1 UNK         0.0837 
    104 H104      -75.3005   24.6266  -79.6505 H         1 UNK         0.0837 
    105 H105      -73.6692   24.5500  -80.2949 H         1 UNK         0.0837 
    106 H106      -75.3468   24.0992  -77.1699 H         1 UNK         0.3020 
    107 H107      -75.3905   23.7989  -74.6911 H         1 UNK         0.1245 
    108 H108      -74.2382   25.3555  -73.0893 H         1 UNK         0.0781 
    109 H109      -75.4689   26.5580  -73.4012 H         1 UNK         0.0781 
    110 H110      -76.2710   25.3423  -69.7398 H         1 UNK         0.0836 
    111 H111      -74.9195   26.0477  -70.5864 H         1 UNK         0.0836 
    112 H112      -77.4329   25.8470  -74.7425 H         1 UNK         0.3022 
    113 H113      -79.0691   24.9650  -77.5705 H         1 UNK         0.0747 
    114 H114      -81.0350   23.9428  -76.4524 H         1 UNK         0.0793 
    115 H115      -79.7470   22.7631  -76.6174 H         1 UNK         0.0793 
    116 H116      -80.0468   23.5137  -75.0557 H         1 UNK         0.0793 
    117 H117      -80.2537   25.9951  -75.2093 H         1 UNK         0.3047 
    118 H118      -79.1084   28.6253  -74.5326 H         1 UNK         0.0822 
    119 H119      -79.9373   30.6688  -75.7036 H         1 UNK         0.0807 
    120 H120      -80.0254   29.7754  -77.2224 H         1 UNK         0.0807 
    121 H121      -78.4745   30.0539  -76.4500 H         1 UNK         0.0807 
    122 H122      -81.2427   28.2833  -74.0744 H         1 UNK         0.2946 
    123 H123      -83.9749   28.6242  -75.0795 H         1 UNK         0.1144 
    124 H124      -85.2732   26.5201  -75.5413 H         1 UNK         0.0793 
    125 H125      -83.8290   25.7904  -76.2416 H         1 UNK         0.0793 
    126 H126      -84.5674   27.1935  -76.9995 H         1 UNK         0.0793 
    127 H127      -83.7456   27.6656  -73.0911 H         1 UNK         0.2896 
@<TRIPOS>BOND
     1    1    2 1    
     2    1   67 1    
     3    1   68 1    
     4    1   69 1    
     5    2    3 2    
     6    2    4 am   BACKBONE|DICT|INTERRES
     7    4    5 1    
     8    4   70 1    
     9    5    6 1    
    10    5   65 1    
    11    5   71 1    
    12    6    7 1    
    13    6   72 1    
    14    6   73 1    
    15    7    8 1    
    16    8    9 1    
    17    8   74 1    
    18    8   75 1    
    19    9   10 ar   
    20    9   14 ar   
    21   10   11 ar   
    22   10   76 1    
    23   11   12 ar   
    24   11   48 1    
    25   12   13 ar   
    26   12   77 1    
    27   13   14 ar   
    28   13   15 1    
    29   14   78 1    
    30   15   16 1    
    31   15   79 1    
    32   15   80 1    
    33   16   17 1    
    34   17   18 1    
    35   17   81 1    
    36   17   82 1    
    37   18   19 1    
    38   18   22 1    
    39   18   83 1    
    40   19   20 am   BACKBONE|DICT|INTERRES
    41   19   21 2    
    42   20   84 1    
    43   20   85 1    
    44   22   23 am   BACKBONE|DICT|INTERRES
    45   22   86 1    
    46   23   24 2    
    47   23   25 1    
    48   25   26 1    
    49   25   27 1    
    50   25   87 1    
    51   26   88 1    
    52   26   89 1    
    53   26   90 1    
    54   27   28 am   BACKBONE|DICT|INTERRES
    55   27   91 1    
    56   28   29 2    
    57   28   30 1    
    58   30   31 1    
    59   30   32 1    
    60   30   92 1    
    61   31   93 1    
    62   31   94 1    
    63   31   95 1    
    64   32   33 am   BACKBONE|DICT|INTERRES
    65   32   96 1    
    66   33   34 2    
    67   33   35 1    
    68   35   36 1    
    69   35   37 1    
    70   35   97 1    
    71   36   98 1    
    72   36   99 1    
    73   36  100 1    
    74   37   38 am   BACKBONE|DICT|INTERRES
    75   37  101 1    
    76   38   39 2    
    77   38   40 1    
    78   40   41 1    
    79   40   42 1    
    80   40  102 1    
    81   41  103 1    
    82   41  104 1    
    83   41  105 1    
    84   42   43 am   BACKBONE|DICT|INTERRES
    85   42  106 1    
    86   43   44 2    
    87   43   45 1    
    88   45   46 1    
    89   45   49 1    
    90   45  107 1    
    91   46   47 1    
    92   46  108 1    
    93   46  109 1    
    94   47   48 1    
    95   48  110 1    
    96   48  111 1    
    97   49   50 am   BACKBONE|DICT|INTERRES
    98   49  112 1    
    99   50   51 2    
   100   50   52 1    
   101   52   53 1    
   102   52   54 1    
   103   52  113 1    
   104   53  114 1    
   105   53  115 1    
   106   53  116 1    
   107   54   55 am   BACKBONE|DICT|INTERRES
   108   54  117 1    
   109   55   56 2    
   110   55   57 1    
   111   57   58 1    
   112   57   59 1    
   113   57  118 1    
   114   58  119 1    
   115   58  120 1    
   116   58  121 1    
   117   59   60 am   BACKBONE|DICT|INTERRES
   118   59  122 1    
   119   60   61 2    
   120   60   62 1    
   121   62   63 1    
   122   62   64 1    
   123   62  123 1    
   124   63  124 1    
   125   63  125 1    
   126   63  126 1    
   127   64   65 am   BACKBONE|DICT|INTERRES
   128   64  127 1    
   129   65   66 2    
@<TRIPOS>SUBSTRUCTURE
     1 UNK         1 GROUP             0       ****    0 ROOT    
