@<TRIPOS>MOLECULE
3R135
127   129    1
SMALL
USER_CHARGES


@<TRIPOS>ATOM
      1 CA        -83.3201   27.8712  -70.6890 C.3       0 UNK        -0.1998 
      2 C         -83.5661   27.7544  -72.1856 C.2       0 UNK         0.4909 
      3 O         -84.6354   27.3054  -72.5990 O.2       0 UNK        -0.5240 
      4 N         -82.5820   28.1549  -73.0009 N.am      1 UNK        -0.4739 
      5 CA        -82.6230   28.0849  -74.4681 C.3       1 UNK         0.0864 
      6 C6        -81.6160   29.0697  -75.1195 C.3       11 UNK        -0.0881 
      7 S7        -79.8709   28.7543  -74.6805 S.3       11 UNK        -0.2682 
      8 C8        -79.6071   29.9633  -73.3462 C.3       11 UNK         0.0289 
      9 C9        -78.3590   29.6271  -72.5457 C.ar      11 UNK        -0.0687 
     10 C10       -78.2929   28.4291  -71.8279 C.ar      11 UNK        -0.0823 
     11 C11       -77.1508   28.1037  -71.0934 C.ar      11 UNK        -0.0830 
     12 C12       -76.0746   28.9950  -71.0670 C.ar      11 UNK        -0.1021 
     13 C13       -76.1239   30.1971  -71.7807 C.ar      11 UNK        -0.0753 
     14 C14       -77.2758   30.5102  -72.5122 C.ar      11 UNK        -0.0933 
     15 C15       -74.9389   31.1562  -71.7317 C.3       11 UNK         0.0166 
     16 S16       -74.4306   31.7381  -73.3823 S.3       11 UNK        -0.2615 
     17 C17       -72.7901   32.4544  -73.0175 C.3       11 UNK        -0.0865 
     18 CA        -71.6234   31.6634  -73.6756 C.3       10 UNK         0.0862 
     19 C         -70.2575   32.3923  -73.5139 C.2       10 UNK         0.5551 
     20 N         -69.1648   31.6984  -73.2165 N.am      10 UNK        -0.7319 
     21 O         -70.1794   33.6078  -73.6760 O.2       10 UNK        -0.5018 
     22 N         -71.5814   30.2585  -73.2276 N.am      10 UNK        -0.4509 
     23 C         -71.9632   29.2053  -73.9584 C.2       10 UNK         0.4899 
     24 O         -72.4000   29.2854  -75.1100 O.2       10 UNK        -0.4839 
     25 CA        -71.8575   27.8367  -73.2638 C.3       9 UNK         0.0222 
     26 CB        -72.9450   27.6906  -72.1870 C.3       9 UNK        -0.1966 
     27 N         -72.0292   26.7689  -74.2450 N.am      9 UNK        -0.4218 
     28 C         -71.0389   26.1606  -74.9084 C.2       9 UNK         0.5020 
     29 O         -69.8430   26.2945  -74.6431 O.2       9 UNK        -0.5274 
     30 CA        -71.4589   25.2825  -76.0993 C.3       8 UNK         0.0270 
     31 CB        -72.0747   23.9551  -75.6259 C.3       8 UNK        -0.1976 
     32 N         -72.4034   25.9854  -76.9702 N.am      8 UNK        -0.4313 
     33 C         -72.1003   27.0337  -77.7477 C.2       8 UNK         0.5041 
     34 O         -70.9478   27.4321  -77.9246 O.2       8 UNK        -0.5577 
     35 CA        -73.2543   27.7874  -78.4423 C.3       7 UNK         0.0284 
     36 CB        -73.4107   27.3360  -79.9085 C.3       7 UNK        -0.1958 
     37 N         -74.5419   27.7646  -77.7276 N.am      7 UNK        -0.4454 
     38 C         -75.3496   26.7213  -77.4997 C.2       7 UNK         0.5089 
     39 O         -75.1235   25.5766  -77.8959 O.2       7 UNK        -0.5125 
     40 CA        -76.6021   26.9978  -76.6490 C.3       6 UNK         0.0408 
     41 CB        -77.8497   27.0335  -77.5453 C.3       6 UNK        -0.1791 
     42 N         -76.7950   25.9931  -75.5997 N.am      6 UNK        -0.4762 
     43 C         -75.8885   25.6459  -74.6720 C.2       6 UNK         0.5007 
     44 O         -74.7748   26.1628  -74.5770 O.2       6 UNK        -0.5032 
     45 CA        -76.2698   24.5001  -73.7183 C.3       5 UNK         0.0783 
     46 C46       -77.1031   24.9975  -72.5094 C.3       11 UNK        -0.0857 
     47 S47       -76.0334   25.5639  -71.1439 S.3       11 UNK        -0.2512 
     48 C48       -77.0831   26.7982  -70.3152 C.3       11 UNK         0.0225 
     49 N         -76.9573   23.4340  -74.4515 N.am      5 UNK        -0.4615 
     50 C         -76.3562   22.3351  -74.9296 C.2       4 UNK         0.5053 
     51 O         -75.1585   22.0922  -74.7810 O.2       4 UNK        -0.5105 
     52 CA        -77.2291   21.3110  -75.6791 C.3       4 UNK         0.0263 
     53 CB        -77.6468   20.1735  -74.7327 C.3       4 UNK        -0.1981 
     54 N         -78.4285   21.9006  -76.2743 N.am      4 UNK        -0.4224 
     55 C         -78.4364   22.6564  -77.3809 C.2       3 UNK         0.4895 
     56 O         -77.4447   22.8555  -78.0811 O.2       3 UNK        -0.5091 
     57 CA        -79.7753   23.3101  -77.7726 C.3       3 UNK         0.0250 
     58 CB        -80.4679   22.4923  -78.8750 C.3       3 UNK        -0.1996 
     59 N         -80.7119   23.5067  -76.6582 N.am      3 UNK        -0.4254 
     60 C         -80.4776   24.2609  -75.5757 C.2       2 UNK         0.5004 
     61 O         -79.4038   24.8226  -75.3469 O.2       2 UNK        -0.5226 
     62 CA        -81.6082   24.3544  -74.5419 C.3       2 UNK         0.0269 
     63 CB        -81.2326   23.5804  -73.2671 C.3       2 UNK        -0.1926 
     64 N         -81.8844   25.7464  -74.1930 N.am      2 UNK        -0.4687 
     65 C         -82.4604   26.6444  -75.0066 C.2       1 UNK         0.5165 
     66 O         -82.8732   26.3717  -76.1353 O.2       1 UNK        -0.5079 
     67 H67       -83.3865   26.8896  -70.2204 H         1 UNK         0.0900 
     68 H68       -84.0713   28.5169  -70.2351 H         1 UNK         0.0900 
     69 H69       -82.3374   28.2872  -70.4673 H         1 UNK         0.0900 
     70 H70       -81.7236   28.5121  -72.6093 H         1 UNK         0.2959 
     71 H71       -83.6213   28.4026  -74.7786 H         1 UNK         0.1079 
     72 H72       -81.7027   29.0305  -76.2071 H         1 UNK         0.0837 
     73 H73       -81.8746   30.0946  -74.8484 H         1 UNK         0.0837 
     74 H74       -79.5379   30.9614  -73.7817 H         1 UNK         0.0685 
     75 H75       -80.4635   29.9781  -72.6721 H         1 UNK         0.0685 
     76 H76       -79.1298   27.7450  -71.8525 H         1 UNK         0.1434 
     77 H77       -75.1947   28.7444  -70.4906 H         1 UNK         0.1329 
     78 H78       -77.3243   31.4410  -73.0603 H         1 UNK         0.1335 
     79 H79       -75.1991   32.0155  -71.1123 H         1 UNK         0.0680 
     80 H80       -74.0850   30.6725  -71.2551 H         1 UNK         0.0680 
     81 H81       -72.6417   32.5252  -71.9387 H         1 UNK         0.1032 
     82 H82       -72.8045   33.4830  -73.3826 H         1 UNK         0.1032 
     83 H83       -71.7963   31.6837  -74.7530 H         1 UNK         0.0461 
     84 H84       -68.2860   32.1830  -73.1203 H         1 UNK         0.3453 
     85 H85       -69.1984   30.6958  -73.1270 H         1 UNK         0.3453 
     86 H86       -71.2333   30.1095  -72.2913 H         1 UNK         0.2984 
     87 H87       -70.8774   27.7555  -72.7896 H         1 UNK         0.0554 
     88 H88       -72.9236   26.7012  -71.7300 H         1 UNK         0.0847 
     89 H89       -73.9418   27.8408  -72.6041 H         1 UNK         0.0847 
     90 H90       -72.8116   28.4188  -71.3869 H         1 UNK         0.0847 
     91 H91       -72.9902   26.6013  -74.5398 H         1 UNK         0.3141 
     92 H92       -70.5640   25.0537  -76.6818 H         1 UNK         0.0743 
     93 H93       -72.9901   24.1091  -75.0534 H         1 UNK         0.0784 
     94 H94       -72.3164   23.3073  -76.4687 H         1 UNK         0.0784 
     95 H95       -71.3793   23.4095  -74.9868 H         1 UNK         0.0784 
     96 H96       -73.3762   25.6978  -76.9362 H         1 UNK         0.3213 
     97 H97       -72.9567   28.8374  -78.4567 H         1 UNK         0.0855 
     98 H98       -72.4790   27.4770  -80.4579 H         1 UNK         0.0814 
     99 H99       -74.1798   27.9127  -80.4221 H         1 UNK         0.0814 
    100 H100      -73.6724   26.2806  -79.9869 H         1 UNK         0.0814 
    101 H101      -74.7972   28.6461  -77.3028 H         1 UNK         0.3105 
    102 H102      -76.4984   27.9655  -76.1539 H         1 UNK         0.0547 
    103 H103      -77.7814   27.8380  -78.2783 H         1 UNK         0.0837 
    104 H104      -77.9699   26.0999  -78.0956 H         1 UNK         0.0837 
    105 H105      -78.7577   27.1971  -76.9655 H         1 UNK         0.0837 
    106 H106      -77.7001   25.5288  -75.5867 H         1 UNK         0.3020 
    107 H107      -75.3304   24.0963  -73.3322 H         1 UNK         0.1245 
    108 H108      -77.7100   24.1837  -72.1094 H         1 UNK         0.0781 
    109 H109      -77.8096   25.7765  -72.8019 H         1 UNK         0.0781 
    110 H110      -76.6755   26.9941  -69.3223 H         1 UNK         0.0836 
    111 H111      -78.0795   26.3826  -70.1565 H         1 UNK         0.0836 
    112 H112      -77.9297   23.6071  -74.6783 H         1 UNK         0.3022 
    113 H113      -76.6203   20.8830  -76.4788 H         1 UNK         0.0747 
    114 H114      -78.2076   19.4024  -75.2615 H         1 UNK         0.0793 
    115 H115      -76.7723   19.6912  -74.2934 H         1 UNK         0.0793 
    116 H116      -78.2652   20.5367  -73.9108 H         1 UNK         0.0793 
    117 H117      -79.2981   21.7693  -75.7792 H         1 UNK         0.3047 
    118 H118      -79.5433   24.2966  -78.1775 H         1 UNK         0.0822 
    119 H119      -81.3642   22.9945  -79.2395 H         1 UNK         0.0807 
    120 H120      -80.7560   21.5011  -78.5225 H         1 UNK         0.0807 
    121 H121      -79.8071   22.3536  -79.7322 H         1 UNK         0.0807 
    122 H122      -81.6179   23.0710  -76.7578 H         1 UNK         0.2946 
    123 H123      -82.5192   23.9193  -74.9595 H         1 UNK         0.1144 
    124 H124      -81.0395   22.5300  -73.4888 H         1 UNK         0.0793 
    125 H125      -82.0379   23.6118  -72.5329 H         1 UNK         0.0793 
    126 H126      -80.3350   23.9850  -72.7971 H         1 UNK         0.0793 
    127 H127      -81.5493   26.0679  -73.2977 H         1 UNK         0.2896 
@<TRIPOS>BOND
     1    1    2 1    
     2    1   67 1    
     3    1   68 1    
     4    1   69 1    
     5    2    3 2    
     6    2    4 am   BACKBONE|DICT|INTERRES
     7    4    5 1    
     8    4   70 1    
     9    5    6 1    
    10    5   65 1    
    11    5   71 1    
    12    6    7 1    
    13    6   72 1    
    14    6   73 1    
    15    7    8 1    
    16    8    9 1    
    17    8   74 1    
    18    8   75 1    
    19    9   10 ar   
    20    9   14 ar   
    21   10   11 ar   
    22   10   76 1    
    23   11   12 ar   
    24   11   48 1    
    25   12   13 ar   
    26   12   77 1    
    27   13   14 ar   
    28   13   15 1    
    29   14   78 1    
    30   15   16 1    
    31   15   79 1    
    32   15   80 1    
    33   16   17 1    
    34   17   18 1    
    35   17   81 1    
    36   17   82 1    
    37   18   19 1    
    38   18   22 1    
    39   18   83 1    
    40   19   20 am   BACKBONE|DICT|INTERRES
    41   19   21 2    
    42   20   84 1    
    43   20   85 1    
    44   22   23 am   BACKBONE|DICT|INTERRES
    45   22   86 1    
    46   23   24 2    
    47   23   25 1    
    48   25   26 1    
    49   25   27 1    
    50   25   87 1    
    51   26   88 1    
    52   26   89 1    
    53   26   90 1    
    54   27   28 am   BACKBONE|DICT|INTERRES
    55   27   91 1    
    56   28   29 2    
    57   28   30 1    
    58   30   31 1    
    59   30   32 1    
    60   30   92 1    
    61   31   93 1    
    62   31   94 1    
    63   31   95 1    
    64   32   33 am   BACKBONE|DICT|INTERRES
    65   32   96 1    
    66   33   34 2    
    67   33   35 1    
    68   35   36 1    
    69   35   37 1    
    70   35   97 1    
    71   36   98 1    
    72   36   99 1    
    73   36  100 1    
    74   37   38 am   BACKBONE|DICT|INTERRES
    75   37  101 1    
    76   38   39 2    
    77   38   40 1    
    78   40   41 1    
    79   40   42 1    
    80   40  102 1    
    81   41  103 1    
    82   41  104 1    
    83   41  105 1    
    84   42   43 am   BACKBONE|DICT|INTERRES
    85   42  106 1    
    86   43   44 2    
    87   43   45 1    
    88   45   46 1    
    89   45   49 1    
    90   45  107 1    
    91   46   47 1    
    92   46  108 1    
    93   46  109 1    
    94   47   48 1    
    95   48  110 1    
    96   48  111 1    
    97   49   50 am   BACKBONE|DICT|INTERRES
    98   49  112 1    
    99   50   51 2    
   100   50   52 1    
   101   52   53 1    
   102   52   54 1    
   103   52  113 1    
   104   53  114 1    
   105   53  115 1    
   106   53  116 1    
   107   54   55 am   BACKBONE|DICT|INTERRES
   108   54  117 1    
   109   55   56 2    
   110   55   57 1    
   111   57   58 1    
   112   57   59 1    
   113   57  118 1    
   114   58  119 1    
   115   58  120 1    
   116   58  121 1    
   117   59   60 am   BACKBONE|DICT|INTERRES
   118   59  122 1    
   119   60   61 2    
   120   60   62 1    
   121   62   63 1    
   122   62   64 1    
   123   62  123 1    
   124   63  124 1    
   125   63  125 1    
   126   63  126 1    
   127   64   65 am   BACKBONE|DICT|INTERRES
   128   64  127 1    
   129   65   66 2    
@<TRIPOS>SUBSTRUCTURE
     1 UNK         1 GROUP             0       ****    0 ROOT    
