@<TRIPOS>MOLECULE
3R135
127   129    1
SMALL
USER_CHARGES


@<TRIPOS>ATOM
      1 CA        -82.1600   31.2354  -77.2720 C.3       0 UNK        -0.1998 
      2 C         -81.4149   29.9439  -76.9695 C.2       0 UNK         0.4909 
      3 O         -81.1938   29.1382  -77.8747 O.2       0 UNK        -0.5240 
      4 N         -81.0186   29.7459  -75.7065 N.am      1 UNK        -0.4739 
      5 CA        -80.3254   28.5455  -75.2256 C.3       1 UNK         0.0864 
      6 C6        -79.6865   28.7628  -73.8323 C.3       11 UNK        -0.0881 
      7 S7        -78.5288   30.1717  -73.7792 S.3       11 UNK        -0.2682 
      8 C8        -78.2620   30.3521  -71.9850 C.3       11 UNK         0.0289 
      9 C9        -77.4344   29.2072  -71.4182 C.ar      11 UNK        -0.0687 
     10 C10       -78.0597   28.0397  -70.9717 C.ar      11 UNK        -0.0823 
     11 C11       -77.3019   26.9607  -70.5082 C.ar      11 UNK        -0.0830 
     12 C12       -75.9100   27.0759  -70.4378 C.ar      11 UNK        -0.1021 
     13 C13       -75.2745   28.2388  -70.8801 C.ar      11 UNK        -0.0753 
     14 C14       -76.0408   29.3026  -71.3658 C.ar      11 UNK        -0.0933 
     15 C15       -73.7586   28.3275  -70.8811 C.3       11 UNK         0.0166 
     16 S16       -73.0949   27.7794  -72.4828 S.3       11 UNK        -0.2615 
     17 C17       -71.3129   28.1128  -72.2605 C.3       11 UNK        -0.0865 
     18 CA        -70.9415   29.6167  -72.3671 C.3       10 UNK         0.0862 
     19 C         -69.4033   29.8105  -72.2805 C.2       10 UNK         0.5551 
     20 N         -68.8648   29.9637  -71.0786 N.am      10 UNK        -0.7319 
     21 O         -68.6938   29.7761  -73.2843 O.2       10 UNK        -0.5018 
     22 N         -71.5322   30.2335  -73.5606 N.am      10 UNK        -0.4509 
     23 C         -71.5880   31.5450  -73.8196 C.2       10 UNK         0.4899 
     24 O         -71.1216   32.4145  -73.0826 O.2       10 UNK        -0.4839 
     25 CA        -72.3046   31.9648  -75.1157 C.3       9 UNK         0.0222 
     26 CB        -71.2793   32.2712  -76.2190 C.3       9 UNK        -0.1966 
     27 N         -73.2481   30.9559  -75.6067 N.am      9 UNK        -0.4218 
     28 C         -74.4271   30.6473  -75.0547 C.2       9 UNK         0.5020 
     29 O         -74.8843   31.2347  -74.0744 O.2       9 UNK        -0.5274 
     30 CA        -75.2409   29.5023  -75.6960 C.3       8 UNK         0.0270 
     31 CB        -76.0776   30.0226  -76.8793 C.3       8 UNK        -0.1976 
     32 N         -74.4925   28.2934  -76.0826 N.am      8 UNK        -0.4313 
     33 C         -73.4626   28.1532  -76.9340 C.2       8 UNK         0.5041 
     34 O         -72.9258   29.0857  -77.5334 O.2       8 UNK        -0.5577 
     35 CA        -72.9263   26.7276  -77.1565 C.3       7 UNK         0.0284 
     36 CB        -71.8523   26.3900  -76.1093 C.3       7 UNK        -0.1958 
     37 N         -73.9753   25.7066  -77.1291 N.am      7 UNK        -0.4454 
     38 C         -74.9651   25.6040  -78.0275 C.2       7 UNK         0.5089 
     39 O         -75.0411   26.2973  -79.0424 O.2       7 UNK        -0.5125 
     40 CA        -76.0650   24.5609  -77.7522 C.3       6 UNK         0.0408 
     41 CB        -75.8892   23.3372  -78.6653 C.3       6 UNK        -0.1791 
     42 N         -76.1707   24.1038  -76.3610 N.am      6 UNK        -0.4762 
     43 C         -76.4467   24.8732  -75.2960 C.2       6 UNK         0.5007 
     44 O         -76.4955   26.1041  -75.3437 O.2       6 UNK        -0.5032 
     45 CA        -76.7275   24.1319  -73.9729 C.3       5 UNK         0.0783 
     46 C46       -77.4262   25.0329  -72.9222 C.3       11 UNK        -0.0857 
     47 S47       -77.4399   24.2728  -71.2580 S.3       11 UNK        -0.2512 
     48 C48       -77.9842   25.6413  -70.1733 C.3       11 UNK         0.0225 
     49 N         -77.5129   22.9277  -74.2569 N.am      5 UNK        -0.4615 
     50 C         -77.2032   21.6819  -73.8781 C.2       4 UNK         0.5053 
     51 O         -76.1554   21.3869  -73.3028 O.2       4 UNK        -0.5105 
     52 CA        -78.2314   20.5695  -74.1660 C.3       4 UNK         0.0263 
     53 CB        -78.8627   20.0780  -72.8522 C.3       4 UNK        -0.1981 
     54 N         -79.3044   20.9876  -75.0723 N.am      4 UNK        -0.4224 
     55 C         -79.2083   21.0236  -76.4083 C.2       3 UNK         0.4895 
     56 O         -78.2170   20.6495  -77.0351 O.2       3 UNK        -0.5091 
     57 CA        -80.4133   21.6081  -77.1719 C.3       3 UNK         0.0250 
     58 CB        -81.4109   20.4964  -77.5350 C.3       3 UNK        -0.1996 
     59 N         -81.1159   22.6828  -76.4540 N.am      3 UNK        -0.4254 
     60 C         -80.5469   23.8393  -76.0880 C.2       2 UNK         0.5004 
     61 O         -79.3608   24.1040  -76.2886 O.2       2 UNK        -0.5226 
     62 CA        -81.4151   24.8478  -75.3296 C.3       2 UNK         0.0269 
     63 CB        -81.6498   24.3885  -73.8771 C.3       2 UNK        -0.1926 
     64 N         -80.7166   26.1315  -75.3372 N.am      2 UNK        -0.4687 
     65 C         -81.2795   27.3322  -75.1800 C.2       1 UNK         0.5165 
     66 O         -82.4837   27.4971  -74.9644 O.2       1 UNK        -0.5079 
     67 H67       -83.1550   31.0129  -77.6567 H         1 UNK         0.0900 
     68 H68       -81.6232   31.8107  -78.0259 H         1 UNK         0.0900 
     69 H69       -82.2709   31.8593  -76.3851 H         1 UNK         0.0900 
     70 H70       -81.2303   30.4366  -75.0011 H         1 UNK         0.2959 
     71 H71       -79.5258   28.3190  -75.9354 H         1 UNK         0.1079 
     72 H72       -79.1335   27.8689  -73.5378 H         1 UNK         0.0837 
     73 H73       -80.4593   28.9167  -73.0763 H         1 UNK         0.0837 
     74 H74       -79.2233   30.4189  -71.4733 H         1 UNK         0.0685 
     75 H75       -77.7535   31.3000  -71.8022 H         1 UNK         0.0685 
     76 H76       -79.1360   27.9555  -71.0299 H         1 UNK         0.1434 
     77 H77       -75.3195   26.2372  -70.0947 H         1 UNK         0.1329 
     78 H78       -75.5499   30.1951  -71.7296 H         1 UNK         0.1335 
     79 H79       -73.3390   27.7154  -70.0812 H         1 UNK         0.0680 
     80 H80       -73.4516   29.3553  -70.6845 H         1 UNK         0.0680 
     81 H81       -70.7762   27.5370  -73.0173 H         1 UNK         0.1032 
     82 H82       -70.9966   27.7076  -71.2974 H         1 UNK         0.1032 
     83 H83       -71.3809   30.1299  -71.5099 H         1 UNK         0.0461 
     84 H84       -69.4363   29.9842  -70.2482 H         1 UNK         0.3453 
     85 H85       -67.8658   30.0741  -71.0002 H         1 UNK         0.3453 
     86 H86       -71.9512   29.5983  -74.2217 H         1 UNK         0.2984 
     87 H87       -72.8641   32.8780  -74.9032 H         1 UNK         0.0554 
     88 H88       -71.7660   32.6398  -77.1222 H         1 UNK         0.0847 
     89 H89       -70.6995   31.3869  -76.4873 H         1 UNK         0.0847 
     90 H90       -70.5742   33.0383  -75.8957 H         1 UNK         0.0847 
     91 H91       -72.9697   30.4039  -76.4205 H         1 UNK         0.3141 
     92 H92       -75.9384   29.1625  -74.9286 H         1 UNK         0.0743 
     93 H93       -75.4491   30.3525  -77.7071 H         1 UNK         0.0784 
     94 H94       -76.7503   29.2510  -77.2542 H         1 UNK         0.0784 
     95 H95       -76.6946   30.8700  -76.5769 H         1 UNK         0.0784 
     96 H96       -74.8680   27.4415  -75.6786 H         1 UNK         0.3213 
     97 H97       -72.4608   26.7031  -78.1444 H         1 UNK         0.0855 
     98 H98       -72.2659   26.3543  -75.1009 H         1 UNK         0.0814 
     99 H99       -71.0577   27.1377  -76.1093 H         1 UNK         0.0814 
    100 H100      -71.3867   25.4261  -76.3153 H         1 UNK         0.0814 
    101 H101      -73.9919   25.0799  -76.3382 H         1 UNK         0.3105 
    102 H102      -77.0171   25.0337  -78.0026 H         1 UNK         0.0547 
    103 H103      -75.8439   23.6339  -79.7142 H         1 UNK         0.0837 
    104 H104      -74.9707   22.7942  -78.4401 H         1 UNK         0.0837 
    105 H105      -76.7246   22.6437  -78.5642 H         1 UNK         0.0837 
    106 H106      -76.1642   23.1032  -76.2219 H         1 UNK         0.3020 
    107 H107      -75.7450   23.8582  -73.5814 H         1 UNK         0.1245 
    108 H108      -78.4489   25.2663  -73.2218 H         1 UNK         0.0781 
    109 H109      -76.9005   25.9856  -72.8577 H         1 UNK         0.0781 
    110 H110      -77.7743   25.3792  -69.1356 H         1 UNK         0.0836 
    111 H111      -79.0683   25.7349  -70.2529 H         1 UNK         0.0836 
    112 H112      -78.3415   23.0848  -74.8195 H         1 UNK         0.3022 
    113 H113      -77.6912   19.7346  -74.6178 H         1 UNK         0.0747 
    114 H114      -79.5556   19.2548  -73.0274 H         1 UNK         0.0793 
    115 H115      -78.0989   19.7144  -72.1633 H         1 UNK         0.0793 
    116 H116      -79.4065   20.8748  -72.3427 H         1 UNK         0.0793 
    117 H117      -80.1614   21.3081  -74.6454 H         1 UNK         0.3047 
    118 H118      -80.0268   22.0348  -78.1003 H         1 UNK         0.0822 
    119 H119      -82.2156   20.8749  -78.1657 H         1 UNK         0.0807 
    120 H120      -81.8604   20.0494  -76.6473 H         1 UNK         0.0807 
    121 H121      -80.9184   19.6958  -78.0889 H         1 UNK         0.0807 
    122 H122      -82.0931   22.5285  -76.2485 H         1 UNK         0.2946 
    123 H123      -82.3691   24.9488  -75.8523 H         1 UNK         0.1144 
    124 H124      -82.1850   23.4390  -73.8442 H         1 UNK         0.0793 
    125 H125      -82.2495   25.1112  -73.3236 H         1 UNK         0.0793 
    126 H126      -80.7111   24.2538  -73.3382 H         1 UNK         0.0793 
    127 H127      -79.7322   26.0526  -75.5670 H         1 UNK         0.2896 
@<TRIPOS>BOND
     1    1    2 1    
     2    1   67 1    
     3    1   68 1    
     4    1   69 1    
     5    2    3 2    
     6    2    4 am   BACKBONE|DICT|INTERRES
     7    4    5 1    
     8    4   70 1    
     9    5    6 1    
    10    5   65 1    
    11    5   71 1    
    12    6    7 1    
    13    6   72 1    
    14    6   73 1    
    15    7    8 1    
    16    8    9 1    
    17    8   74 1    
    18    8   75 1    
    19    9   10 ar   
    20    9   14 ar   
    21   10   11 ar   
    22   10   76 1    
    23   11   12 ar   
    24   11   48 1    
    25   12   13 ar   
    26   12   77 1    
    27   13   14 ar   
    28   13   15 1    
    29   14   78 1    
    30   15   16 1    
    31   15   79 1    
    32   15   80 1    
    33   16   17 1    
    34   17   18 1    
    35   17   81 1    
    36   17   82 1    
    37   18   19 1    
    38   18   22 1    
    39   18   83 1    
    40   19   20 am   BACKBONE|DICT|INTERRES
    41   19   21 2    
    42   20   84 1    
    43   20   85 1    
    44   22   23 am   BACKBONE|DICT|INTERRES
    45   22   86 1    
    46   23   24 2    
    47   23   25 1    
    48   25   26 1    
    49   25   27 1    
    50   25   87 1    
    51   26   88 1    
    52   26   89 1    
    53   26   90 1    
    54   27   28 am   BACKBONE|DICT|INTERRES
    55   27   91 1    
    56   28   29 2    
    57   28   30 1    
    58   30   31 1    
    59   30   32 1    
    60   30   92 1    
    61   31   93 1    
    62   31   94 1    
    63   31   95 1    
    64   32   33 am   BACKBONE|DICT|INTERRES
    65   32   96 1    
    66   33   34 2    
    67   33   35 1    
    68   35   36 1    
    69   35   37 1    
    70   35   97 1    
    71   36   98 1    
    72   36   99 1    
    73   36  100 1    
    74   37   38 am   BACKBONE|DICT|INTERRES
    75   37  101 1    
    76   38   39 2    
    77   38   40 1    
    78   40   41 1    
    79   40   42 1    
    80   40  102 1    
    81   41  103 1    
    82   41  104 1    
    83   41  105 1    
    84   42   43 am   BACKBONE|DICT|INTERRES
    85   42  106 1    
    86   43   44 2    
    87   43   45 1    
    88   45   46 1    
    89   45   49 1    
    90   45  107 1    
    91   46   47 1    
    92   46  108 1    
    93   46  109 1    
    94   47   48 1    
    95   48  110 1    
    96   48  111 1    
    97   49   50 am   BACKBONE|DICT|INTERRES
    98   49  112 1    
    99   50   51 2    
   100   50   52 1    
   101   52   53 1    
   102   52   54 1    
   103   52  113 1    
   104   53  114 1    
   105   53  115 1    
   106   53  116 1    
   107   54   55 am   BACKBONE|DICT|INTERRES
   108   54  117 1    
   109   55   56 2    
   110   55   57 1    
   111   57   58 1    
   112   57   59 1    
   113   57  118 1    
   114   58  119 1    
   115   58  120 1    
   116   58  121 1    
   117   59   60 am   BACKBONE|DICT|INTERRES
   118   59  122 1    
   119   60   61 2    
   120   60   62 1    
   121   62   63 1    
   122   62   64 1    
   123   62  123 1    
   124   63  124 1    
   125   63  125 1    
   126   63  126 1    
   127   64   65 am   BACKBONE|DICT|INTERRES
   128   64  127 1    
   129   65   66 2    
@<TRIPOS>SUBSTRUCTURE
     1 UNK         1 GROUP             0       ****    0 ROOT    
