@<TRIPOS>MOLECULE
3R135
127   129    1
SMALL
USER_CHARGES


@<TRIPOS>ATOM
      1 CA        -82.6232   24.7471  -72.5253 C.3       0 UNK        -0.1998 
      2 C         -82.8578   26.1495  -73.0633 C.2       0 UNK         0.4909 
      3 O         -83.7407   26.3428  -73.8996 O.2       0 UNK        -0.5240 
      4 N         -82.0864   27.1319  -72.5781 N.am      1 UNK        -0.4739 
      5 CA        -82.2166   28.5515  -72.9425 C.3       1 UNK         0.0864 
      6 C6        -81.4599   29.4880  -71.9666 C.3       11 UNK        -0.0881 
      7 S7        -81.8449   29.1534  -70.2116 S.3       11 UNK        -0.2682 
      8 C8        -80.2604   29.5226  -69.3864 C.3       11 UNK         0.0289 
      9 C9        -79.1011   28.6873  -69.9171 C.ar      11 UNK        -0.0687 
     10 C10       -79.0919   27.2981  -69.7513 C.ar      11 UNK        -0.0823 
     11 C11       -78.0316   26.5329  -70.2467 C.ar      11 UNK        -0.0830 
     12 C12       -76.9653   27.1696  -70.8890 C.ar      11 UNK        -0.1021 
     13 C13       -76.9617   28.5564  -71.0602 C.ar      11 UNK        -0.0753 
     14 C14       -78.0331   29.3099  -70.5733 C.ar      11 UNK        -0.0933 
     15 C15       -75.7909   29.2354  -71.7553 C.3       11 UNK         0.0166 
     16 S16       -75.9233   29.1100  -73.5655 S.3       11 UNK        -0.2615 
     17 C17       -74.2513   29.6474  -74.0624 C.3       11 UNK        -0.0865 
     18 CA        -74.2206   30.4258  -75.4084 C.3       10 UNK         0.0862 
     19 C         -74.4160   31.9571  -75.1927 C.2       10 UNK         0.5551 
     20 N         -73.4108   32.7915  -75.4296 N.am      10 UNK        -0.7319 
     21 O         -75.4976   32.3956  -74.8109 O.2       10 UNK        -0.5018 
     22 N         -73.0340   30.0471  -76.1978 N.am      10 UNK        -0.4509 
     23 C         -72.8606   30.2863  -77.5056 C.2       10 UNK         0.4899 
     24 O         -73.6853   30.8597  -78.2165 O.2       10 UNK        -0.4839 
     25 CA        -71.5384   29.8010  -78.1296 C.3       9 UNK         0.0222 
     26 CB        -70.4695   30.9029  -78.0441 C.3       9 UNK        -0.1966 
     27 N         -71.0263   28.5723  -77.5108 N.am      9 UNK        -0.4218 
     28 C         -71.5577   27.3556  -77.6960 C.2       9 UNK         0.5020 
     29 O         -72.4876   27.1326  -78.4723 O.2       9 UNK        -0.5274 
     30 CA        -70.9558   26.1911  -76.8937 C.3       8 UNK         0.0270 
     31 CB        -70.4225   26.6075  -75.5055 C.3       8 UNK        -0.1976 
     32 N         -71.9749   25.1567  -76.7305 N.am      8 UNK        -0.4313 
     33 C         -71.7558   23.8385  -76.6648 C.2       8 UNK         0.5041 
     34 O         -70.6468   23.3150  -76.7926 O.2       8 UNK        -0.5577 
     35 CA        -72.9979   22.9803  -76.3564 C.3       7 UNK         0.0284 
     36 CB        -72.6880   21.4815  -76.1568 C.3       7 UNK        -0.1958 
     37 N         -73.7336   23.5408  -75.2169 N.am      7 UNK        -0.4454 
     38 C         -73.3001   23.6794  -73.9537 C.2       7 UNK         0.5089 
     39 O         -72.2721   23.1715  -73.5055 O.2       7 UNK        -0.5125 
     40 CA        -74.1370   24.5925  -73.0435 C.3       6 UNK         0.0408 
     41 CB        -73.6035   26.0289  -73.1375 C.3       6 UNK        -0.1791 
     42 N         -75.5580   24.5836  -73.3946 N.am      6 UNK        -0.4762 
     43 C         -76.4143   23.6159  -73.0357 C.2       6 UNK         0.5007 
     44 O         -76.1131   22.6685  -72.3087 O.2       6 UNK        -0.5032 
     45 CA        -77.8375   23.7124  -73.6206 C.3       5 UNK         0.0783 
     46 C46       -78.7064   24.7393  -72.8543 C.3       11 UNK        -0.0857 
     47 S47       -79.2277   24.1921  -71.1925 S.3       11 UNK        -0.2512 
     48 C48       -78.0302   25.0180  -70.0900 C.3       11 UNK         0.0225 
     49 N         -77.7869   24.0300  -75.0519 N.am      5 UNK        -0.4615 
     50 C         -77.3206   23.2044  -76.0016 C.2       4 UNK         0.5053 
     51 O         -76.9722   22.0455  -75.7786 O.2       4 UNK        -0.5105 
     52 CA        -77.2065   23.7439  -77.4414 C.3       4 UNK         0.0263 
     53 CB        -78.3494   23.1936  -78.3098 C.3       4 UNK        -0.1981 
     54 N         -77.1995   25.2052  -77.5382 N.am      4 UNK        -0.4224 
     55 C         -76.2345   26.0150  -77.0805 C.2       3 UNK         0.4895 
     56 O         -75.1895   25.6143  -76.5633 O.2       3 UNK        -0.5091 
     57 CA        -76.5089   27.5290  -77.1651 C.3       3 UNK         0.0250 
     58 CB        -75.9233   28.1144  -78.4572 C.3       3 UNK        -0.1996 
     59 N         -77.9242   27.9161  -77.0815 N.am      3 UNK        -0.4254 
     60 C         -78.7700   27.5872  -76.0967 C.2       2 UNK         0.5004 
     61 O         -78.4796   26.8345  -75.1642 O.2       2 UNK        -0.5226 
     62 CA        -80.1924   28.1460  -76.2007 C.3       2 UNK         0.0269 
     63 CB        -81.0207   27.3611  -77.2340 C.3       2 UNK        -0.1926 
     64 N         -80.8174   28.0344  -74.8888 N.am      2 UNK        -0.4687 
     65 C         -81.7671   28.8335  -74.3919 C.2       1 UNK         0.5165 
     66 O         -82.2757   29.7639  -75.0192 O.2       1 UNK        -0.5079 
     67 H67       -82.1119   24.7685  -71.5637 H         1 UNK         0.0900 
     68 H68       -83.5733   24.2328  -72.3840 H         1 UNK         0.0900 
     69 H69       -82.0230   24.1676  -73.2259 H         1 UNK         0.0900 
     70 H70       -81.3899   26.9254  -71.8758 H         1 UNK         0.2959 
     71 H71       -83.2782   28.8037  -72.8880 H         1 UNK         0.1079 
     72 H72       -81.7100   30.5307  -72.1722 H         1 UNK         0.0837 
     73 H73       -80.3851   29.4016  -72.1296 H         1 UNK         0.0837 
     74 H74       -80.0514   30.5882  -69.4925 H         1 UNK         0.0685 
     75 H75       -80.3700   29.3384  -68.3169 H         1 UNK         0.0685 
     76 H76       -79.9177   26.8118  -69.2497 H         1 UNK         0.1434 
     77 H77       -76.1415   26.5828  -71.2696 H         1 UNK         0.1329 
     78 H78       -78.0341   30.3832  -70.7058 H         1 UNK         0.1335 
     79 H79       -74.8584   28.7776  -71.4224 H         1 UNK         0.0680 
     80 H80       -75.7347   30.2880  -71.4731 H         1 UNK         0.0680 
     81 H81       -73.6521   28.7410  -74.1362 H         1 UNK         0.1032 
     82 H82       -73.7874   30.2281  -73.2622 H         1 UNK         0.1032 
     83 H83       -75.0775   30.1080  -76.0044 H         1 UNK         0.0461 
     84 H84       -72.5218   32.4435  -75.7492 H         1 UNK         0.3453 
     85 H85       -73.5472   33.7806  -75.2922 H         1 UNK         0.3453 
     86 H86       -72.2865   29.5968  -75.6932 H         1 UNK         0.2984 
     87 H87       -71.7281   29.5985  -79.1861 H         1 UNK         0.0554 
     88 H88       -70.8197   31.8228  -78.5148 H         1 UNK         0.0847 
     89 H89       -69.5544   30.6084  -78.5583 H         1 UNK         0.0847 
     90 H90       -70.2123   31.1431  -77.0118 H         1 UNK         0.0847 
     91 H91       -70.2427   28.6672  -76.8807 H         1 UNK         0.3141 
     92 H92       -70.1305   25.7927  -77.4873 H         1 UNK         0.0743 
     93 H93       -71.1864   27.1136  -74.9141 H         1 UNK         0.0784 
     94 H94       -70.0890   25.7394  -74.9360 H         1 UNK         0.0784 
     95 H95       -69.5642   27.2748  -75.5874 H         1 UNK         0.0784 
     96 H96       -72.9332   25.4919  -76.7160 H         1 UNK         0.3213 
     97 H97       -73.6567   23.0678  -77.2219 H         1 UNK         0.0855 
     98 H98       -71.9768   21.3135  -75.3478 H         1 UNK         0.0814 
     99 H99       -72.2541   21.0530  -77.0608 H         1 UNK         0.0814 
    100 H100      -73.5934   20.9178  -75.9315 H         1 UNK         0.0814 
    101 H101      -74.5539   24.0798  -75.4741 H         1 UNK         0.3105 
    102 H102      -74.0197   24.2492  -72.0133 H         1 UNK         0.0547 
    103 H103      -72.5453   26.0709  -72.8760 H         1 UNK         0.0837 
    104 H104      -73.7063   26.4236  -74.1488 H         1 UNK         0.0837 
    105 H105      -74.1287   26.6964  -72.4573 H         1 UNK         0.0837 
    106 H106      -75.8863   25.3185  -74.0066 H         1 UNK         0.3020 
    107 H107      -78.3003   22.7277  -73.5209 H         1 UNK         0.1245 
    108 H108      -79.6248   24.9173  -73.4149 H         1 UNK         0.0781 
    109 H109      -78.2149   25.7104  -72.8060 H         1 UNK         0.0781 
    110 H110      -77.0344   24.6113  -70.2715 H         1 UNK         0.0836 
    111 H111      -78.2730   24.7645  -69.0571 H         1 UNK         0.0836 
    112 H112      -78.0467   24.9816  -75.2995 H         1 UNK         0.3022 
    113 H113      -76.2608   23.3796  -77.8481 H         1 UNK         0.0747 
    114 H114      -78.2373   23.4942  -79.3517 H         1 UNK         0.0793 
    115 H115      -78.3650   22.1028  -78.2902 H         1 UNK         0.0793 
    116 H116      -79.3236   23.5396  -77.9616 H         1 UNK         0.0793 
    117 H117      -78.0206   25.6342  -77.9388 H         1 UNK         0.3047 
    118 H118      -75.9967   27.9829  -76.3166 H         1 UNK         0.0822 
    119 H119      -76.4215   27.7210  -79.3439 H         1 UNK         0.0807 
    120 H120      -74.8656   27.8780  -78.5487 H         1 UNK         0.0807 
    121 H121      -76.0071   29.2012  -78.4760 H         1 UNK         0.0807 
    122 H122      -78.2599   28.5201  -77.8182 H         1 UNK         0.2946 
    123 H123      -80.1318   29.1982  -76.4887 H         1 UNK         0.1144 
    124 H124      -82.0374   27.7487  -77.3026 H         1 UNK         0.0793 
    125 H125      -81.0854   26.3029  -76.9768 H         1 UNK         0.0793 
    126 H126      -80.5822   27.4313  -78.2301 H         1 UNK         0.0793 
    127 H127      -80.4022   27.3302  -74.2914 H         1 UNK         0.2896 
@<TRIPOS>BOND
     1    1    2 1    
     2    1   67 1    
     3    1   68 1    
     4    1   69 1    
     5    2    3 2    
     6    2    4 am   BACKBONE|DICT|INTERRES
     7    4    5 1    
     8    4   70 1    
     9    5    6 1    
    10    5   65 1    
    11    5   71 1    
    12    6    7 1    
    13    6   72 1    
    14    6   73 1    
    15    7    8 1    
    16    8    9 1    
    17    8   74 1    
    18    8   75 1    
    19    9   10 ar   
    20    9   14 ar   
    21   10   11 ar   
    22   10   76 1    
    23   11   12 ar   
    24   11   48 1    
    25   12   13 ar   
    26   12   77 1    
    27   13   14 ar   
    28   13   15 1    
    29   14   78 1    
    30   15   16 1    
    31   15   79 1    
    32   15   80 1    
    33   16   17 1    
    34   17   18 1    
    35   17   81 1    
    36   17   82 1    
    37   18   19 1    
    38   18   22 1    
    39   18   83 1    
    40   19   20 am   BACKBONE|DICT|INTERRES
    41   19   21 2    
    42   20   84 1    
    43   20   85 1    
    44   22   23 am   BACKBONE|DICT|INTERRES
    45   22   86 1    
    46   23   24 2    
    47   23   25 1    
    48   25   26 1    
    49   25   27 1    
    50   25   87 1    
    51   26   88 1    
    52   26   89 1    
    53   26   90 1    
    54   27   28 am   BACKBONE|DICT|INTERRES
    55   27   91 1    
    56   28   29 2    
    57   28   30 1    
    58   30   31 1    
    59   30   32 1    
    60   30   92 1    
    61   31   93 1    
    62   31   94 1    
    63   31   95 1    
    64   32   33 am   BACKBONE|DICT|INTERRES
    65   32   96 1    
    66   33   34 2    
    67   33   35 1    
    68   35   36 1    
    69   35   37 1    
    70   35   97 1    
    71   36   98 1    
    72   36   99 1    
    73   36  100 1    
    74   37   38 am   BACKBONE|DICT|INTERRES
    75   37  101 1    
    76   38   39 2    
    77   38   40 1    
    78   40   41 1    
    79   40   42 1    
    80   40  102 1    
    81   41  103 1    
    82   41  104 1    
    83   41  105 1    
    84   42   43 am   BACKBONE|DICT|INTERRES
    85   42  106 1    
    86   43   44 2    
    87   43   45 1    
    88   45   46 1    
    89   45   49 1    
    90   45  107 1    
    91   46   47 1    
    92   46  108 1    
    93   46  109 1    
    94   47   48 1    
    95   48  110 1    
    96   48  111 1    
    97   49   50 am   BACKBONE|DICT|INTERRES
    98   49  112 1    
    99   50   51 2    
   100   50   52 1    
   101   52   53 1    
   102   52   54 1    
   103   52  113 1    
   104   53  114 1    
   105   53  115 1    
   106   53  116 1    
   107   54   55 am   BACKBONE|DICT|INTERRES
   108   54  117 1    
   109   55   56 2    
   110   55   57 1    
   111   57   58 1    
   112   57   59 1    
   113   57  118 1    
   114   58  119 1    
   115   58  120 1    
   116   58  121 1    
   117   59   60 am   BACKBONE|DICT|INTERRES
   118   59  122 1    
   119   60   61 2    
   120   60   62 1    
   121   62   63 1    
   122   62   64 1    
   123   62  123 1    
   124   63  124 1    
   125   63  125 1    
   126   63  126 1    
   127   64   65 am   BACKBONE|DICT|INTERRES
   128   64  127 1    
   129   65   66 2    
@<TRIPOS>SUBSTRUCTURE
     1 UNK         1 GROUP             0       ****    0 ROOT    
