@<TRIPOS>MOLECULE
3R135
127   129    1
SMALL
USER_CHARGES


@<TRIPOS>ATOM
      1 CA        -82.1330   22.6059  -72.5303 C.3       0 UNK        -0.1998 
      2 C         -82.0551   24.0076  -73.1162 C.2       0 UNK         0.4909 
      3 O         -81.9368   24.1633  -74.3338 O.2       0 UNK        -0.5240 
      4 N         -82.1318   25.0291  -72.2534 N.am      1 UNK        -0.4739 
      5 CA        -82.0826   26.4474  -72.6218 C.3       1 UNK         0.0864 
      6 C6        -82.5070   27.3801  -71.4574 C.3       11 UNK        -0.0881 
      7 S7        -81.6084   27.1174  -69.8899 S.3       11 UNK        -0.2682 
      8 C8        -80.7954   28.7313  -69.6253 C.3       11 UNK         0.0289 
      9 C9        -79.4270   28.8382  -70.2900 C.ar      11 UNK        -0.0687 
     10 C10       -78.4606   27.8537  -70.0640 C.ar      11 UNK        -0.0823 
     11 C11       -77.1813   27.9740  -70.6089 C.ar      11 UNK        -0.0830 
     12 C12       -76.8572   29.1031  -71.3635 C.ar      11 UNK        -0.1021 
     13 C13       -77.8114   30.0942  -71.6086 C.ar      11 UNK        -0.0753 
     14 C14       -79.0988   29.9513  -71.0740 C.ar      11 UNK        -0.0933 
     15 C15       -77.4415   31.3377  -72.4102 C.3       11 UNK         0.0166 
     16 S16       -76.9697   30.9600  -74.1307 S.3       11 UNK        -0.2615 
     17 C17       -75.1445   30.9218  -74.0537 C.3       11 UNK        -0.0865 
     18 CA        -74.5127   29.8555  -75.0039 C.3       10 UNK         0.0862 
     19 C         -74.3550   30.3482  -76.4756 C.2       10 UNK         0.5551 
     20 N         -75.3724   30.9927  -77.0293 N.am      10 UNK        -0.7319 
     21 O         -73.3414   30.1299  -77.1358 O.2       10 UNK        -0.5018 
     22 N         -73.2805   29.2676  -74.4491 N.am      10 UNK        -0.4509 
     23 C         -72.1783   29.9477  -74.1032 C.2       10 UNK         0.4899 
     24 O         -72.0772   31.1727  -74.1843 O.2       10 UNK        -0.4839 
     25 CA        -70.9927   29.1568  -73.5205 C.3       9 UNK         0.0222 
     26 CB        -70.9469   29.3311  -71.9927 C.3       9 UNK        -0.1966 
     27 N         -70.9930   27.7243  -73.8291 N.am      9 UNK        -0.4218 
     28 C         -70.6161   27.1860  -74.9968 C.2       9 UNK         0.5020 
     29 O         -70.2998   27.8510  -75.9844 O.2       9 UNK        -0.5274 
     30 CA        -70.5385   25.6508  -75.0741 C.3       8 UNK         0.0270 
     31 CB        -70.8940   24.9225  -73.7593 C.3       8 UNK        -0.1976 
     32 N         -71.4349   25.1878  -76.1268 N.am      8 UNK        -0.4313 
     33 C         -71.1172   24.3584  -77.1290 C.2       8 UNK         0.5041 
     34 O         -69.9899   23.8880  -77.2918 O.2       8 UNK        -0.5577 
     35 CA        -72.2393   23.9496  -78.1076 C.3       7 UNK         0.0284 
     36 CB        -72.5719   22.4557  -77.9523 C.3       7 UNK        -0.1958 
     37 N         -73.4725   24.7201  -77.9350 N.am      7 UNK        -0.4454 
     38 C         -73.6605   25.9764  -78.3603 C.2       7 UNK         0.5089 
     39 O         -72.8538   26.5884  -79.0598 O.2       7 UNK        -0.5125 
     40 CA        -74.9549   26.6773  -77.9051 C.3       6 UNK         0.0408 
     41 CB        -75.9959   26.6531  -79.0346 C.3       6 UNK        -0.1791 
     42 N         -75.5467   26.1192  -76.6806 N.am      6 UNK        -0.4762 
     43 C         -74.9512   26.0712  -75.4789 C.2       6 UNK         0.5007 
     44 O         -73.8194   26.5105  -75.2764 O.2       6 UNK        -0.5032 
     45 CA        -75.6938   25.4055  -74.3038 C.3       5 UNK         0.0783 
     46 C46       -75.9173   26.4041  -73.1482 C.3       11 UNK        -0.0857 
     47 S47       -76.3657   25.5399  -71.6068 S.3       11 UNK        -0.2512 
     48 C48       -76.1542   26.8757  -70.3913 C.3       11 UNK         0.0225 
     49 N         -76.9421   24.7475  -74.6986 N.am      5 UNK        -0.4615 
     50 C         -77.0107   23.5608  -75.3131 C.2       4 UNK         0.5053 
     51 O         -76.0235   22.9098  -75.6563 O.2       4 UNK        -0.5105 
     52 CA        -78.4196   23.0246  -75.6090 C.3       4 UNK         0.0263 
     53 CB        -79.0033   22.3416  -74.3643 C.3       4 UNK        -0.1981 
     54 N         -79.3299   24.0757  -76.0749 N.am      4 UNK        -0.4224 
     55 C         -79.2216   24.6662  -77.2746 C.2       3 UNK         0.4895 
     56 O         -78.3830   24.3502  -78.1182 O.2       3 UNK        -0.5091 
     57 CA        -80.1910   25.8173  -77.5826 C.3       3 UNK         0.0250 
     58 CB        -81.5766   25.2760  -77.9702 C.3       3 UNK        -0.1996 
     59 N         -80.3252   26.7670  -76.4773 N.am      3 UNK        -0.4254 
     60 C         -79.3416   27.5472  -76.0020 C.2       2 UNK         0.5004 
     61 O         -78.1970   27.5550  -76.4477 O.2       2 UNK        -0.5226 
     62 CA        -79.6920   28.4778  -74.8281 C.3       2 UNK         0.0269 
     63 CB        -80.0593   29.8757  -75.3514 C.3       2 UNK        -0.1926 
     64 N         -80.7950   27.9770  -74.0081 N.am      2 UNK        -0.4687 
     65 C         -80.7424   26.8647  -73.2640 C.2       1 UNK         0.5165 
     66 O         -79.7247   26.1792  -73.1279 O.2       1 UNK        -0.5079 
     67 H67       -82.7379   22.5883  -71.6239 H         1 UNK         0.0900 
     68 H68       -82.5823   21.9186  -73.2467 H         1 UNK         0.0900 
     69 H69       -81.1370   22.2409  -72.2834 H         1 UNK         0.0900 
     70 H70       -82.1778   24.8456  -71.2610 H         1 UNK         0.2959 
     71 H71       -82.8330   26.5686  -73.4068 H         1 UNK         0.1079 
     72 H72       -83.5646   27.2160  -71.2450 H         1 UNK         0.0837 
     73 H73       -82.4408   28.4278  -71.7555 H         1 UNK         0.0837 
     74 H74       -81.4568   29.5369  -69.9474 H         1 UNK         0.0685 
     75 H75       -80.6576   28.8685  -68.5520 H         1 UNK         0.0685 
     76 H76       -78.7065   26.9870  -69.4658 H         1 UNK         0.1434 
     77 H77       -75.8623   29.1982  -71.7713 H         1 UNK         0.1329 
     78 H78       -79.8379   30.7221  -71.2441 H         1 UNK         0.1335 
     79 H79       -78.2856   32.0282  -72.4411 H         1 UNK         0.0680 
     80 H80       -76.6358   31.8730  -71.9061 H         1 UNK         0.0680 
     81 H81       -74.7580   31.9191  -74.2726 H         1 UNK         0.1032 
     82 H82       -74.8480   30.7257  -73.0239 H         1 UNK         0.1032 
     83 H83       -75.1991   29.0104  -75.0614 H         1 UNK         0.0461 
     84 H84       -76.2114   31.1659  -76.4954 H         1 UNK         0.3453 
     85 H85       -75.3002   31.3113  -77.9824 H         1 UNK         0.3453 
     86 H86       -73.2455   28.2541  -74.4579 H         1 UNK         0.2984 
     87 H87       -70.0810   29.5927  -73.9347 H         1 UNK         0.0554 
     88 H88       -70.9038   30.3868  -71.7204 H         1 UNK         0.0847 
     89 H89       -70.0656   28.8542  -71.5633 H         1 UNK         0.0847 
     90 H90       -71.8288   28.9078  -71.5102 H         1 UNK         0.0847 
     91 H91       -71.2480   27.0986  -73.0789 H         1 UNK         0.3141 
     92 H92       -69.5034   25.4110  -75.3260 H         1 UNK         0.0743 
     93 H93       -71.9230   25.1121  -73.4499 H         1 UNK         0.0784 
     94 H94       -70.7834   23.8438  -73.8737 H         1 UNK         0.0784 
     95 H95       -70.2316   25.2206  -72.9453 H         1 UNK         0.0784 
     96 H96       -72.3693   25.5865  -76.0901 H         1 UNK         0.3213 
     97 H97       -71.8630   24.1142  -79.1196 H         1 UNK         0.0855 
     98 H98       -72.9576   22.2295  -76.9572 H         1 UNK         0.0814 
     99 H99       -71.6856   21.8386  -78.1066 H         1 UNK         0.0814 
    100 H100      -73.3166   22.1365  -78.6818 H         1 UNK         0.0814 
    101 H101      -74.2027   24.2948  -77.3798 H         1 UNK         0.3105 
    102 H102      -74.7032   27.7178  -77.6991 H         1 UNK         0.0547 
    103 H103      -75.5972   27.1076  -79.9425 H         1 UNK         0.0837 
    104 H104      -76.2951   25.6348  -79.2846 H         1 UNK         0.0837 
    105 H105      -76.8925   27.2103  -78.7639 H         1 UNK         0.0837 
    106 H106      -76.5020   25.7934  -76.7513 H         1 UNK         0.3020 
    107 H107      -75.0112   24.6328  -73.9412 H         1 UNK         0.1245 
    108 H108      -76.7022   27.1183  -73.4054 H         1 UNK         0.0781 
    109 H109      -75.0158   26.9875  -72.9504 H         1 UNK         0.0781 
    110 H110      -75.1401   27.2740  -70.4518 H         1 UNK         0.0836 
    111 H111      -76.2601   26.4626  -69.3871 H         1 UNK         0.0836 
    112 H112      -77.7996   25.2107  -74.4262 H         1 UNK         0.3022 
    113 H113      -78.3323   22.2739  -76.3977 H         1 UNK         0.0747 
    114 H114      -79.9771   21.9006  -74.5772 H         1 UNK         0.0793 
    115 H115      -78.3521   21.5380  -74.0178 H         1 UNK         0.0793 
    116 H116      -79.1208   23.0456  -73.5391 H         1 UNK         0.0793 
    117 H117      -80.0720   24.3624  -75.4449 H         1 UNK         0.3047 
    118 H118      -79.7882   26.3642  -78.4380 H         1 UNK         0.0822 
    119 H119      -82.2426   26.0793  -78.2859 H         1 UNK         0.0807 
    120 H120      -82.0534   24.7504  -77.1415 H         1 UNK         0.0807 
    121 H121      -81.5021   24.5738  -78.8018 H         1 UNK         0.0807 
    122 H122      -81.2312   26.8243  -76.0366 H         1 UNK         0.2946 
    123 H123      -78.8047   28.5569  -74.1953 H         1 UNK         0.1144 
    124 H124      -80.9771   29.8619  -75.9404 H         1 UNK         0.0793 
    125 H125      -79.2703   30.2723  -75.9919 H         1 UNK         0.0793 
    126 H126      -80.1929   30.5815  -74.5313 H         1 UNK         0.0793 
    127 H127      -81.6618   28.4924  -74.0621 H         1 UNK         0.2896 
@<TRIPOS>BOND
     1    1    2 1    
     2    1   67 1    
     3    1   68 1    
     4    1   69 1    
     5    2    3 2    
     6    2    4 am   BACKBONE|DICT|INTERRES
     7    4    5 1    
     8    4   70 1    
     9    5    6 1    
    10    5   65 1    
    11    5   71 1    
    12    6    7 1    
    13    6   72 1    
    14    6   73 1    
    15    7    8 1    
    16    8    9 1    
    17    8   74 1    
    18    8   75 1    
    19    9   10 ar   
    20    9   14 ar   
    21   10   11 ar   
    22   10   76 1    
    23   11   12 ar   
    24   11   48 1    
    25   12   13 ar   
    26   12   77 1    
    27   13   14 ar   
    28   13   15 1    
    29   14   78 1    
    30   15   16 1    
    31   15   79 1    
    32   15   80 1    
    33   16   17 1    
    34   17   18 1    
    35   17   81 1    
    36   17   82 1    
    37   18   19 1    
    38   18   22 1    
    39   18   83 1    
    40   19   20 am   BACKBONE|DICT|INTERRES
    41   19   21 2    
    42   20   84 1    
    43   20   85 1    
    44   22   23 am   BACKBONE|DICT|INTERRES
    45   22   86 1    
    46   23   24 2    
    47   23   25 1    
    48   25   26 1    
    49   25   27 1    
    50   25   87 1    
    51   26   88 1    
    52   26   89 1    
    53   26   90 1    
    54   27   28 am   BACKBONE|DICT|INTERRES
    55   27   91 1    
    56   28   29 2    
    57   28   30 1    
    58   30   31 1    
    59   30   32 1    
    60   30   92 1    
    61   31   93 1    
    62   31   94 1    
    63   31   95 1    
    64   32   33 am   BACKBONE|DICT|INTERRES
    65   32   96 1    
    66   33   34 2    
    67   33   35 1    
    68   35   36 1    
    69   35   37 1    
    70   35   97 1    
    71   36   98 1    
    72   36   99 1    
    73   36  100 1    
    74   37   38 am   BACKBONE|DICT|INTERRES
    75   37  101 1    
    76   38   39 2    
    77   38   40 1    
    78   40   41 1    
    79   40   42 1    
    80   40  102 1    
    81   41  103 1    
    82   41  104 1    
    83   41  105 1    
    84   42   43 am   BACKBONE|DICT|INTERRES
    85   42  106 1    
    86   43   44 2    
    87   43   45 1    
    88   45   46 1    
    89   45   49 1    
    90   45  107 1    
    91   46   47 1    
    92   46  108 1    
    93   46  109 1    
    94   47   48 1    
    95   48  110 1    
    96   48  111 1    
    97   49   50 am   BACKBONE|DICT|INTERRES
    98   49  112 1    
    99   50   51 2    
   100   50   52 1    
   101   52   53 1    
   102   52   54 1    
   103   52  113 1    
   104   53  114 1    
   105   53  115 1    
   106   53  116 1    
   107   54   55 am   BACKBONE|DICT|INTERRES
   108   54  117 1    
   109   55   56 2    
   110   55   57 1    
   111   57   58 1    
   112   57   59 1    
   113   57  118 1    
   114   58  119 1    
   115   58  120 1    
   116   58  121 1    
   117   59   60 am   BACKBONE|DICT|INTERRES
   118   59  122 1    
   119   60   61 2    
   120   60   62 1    
   121   62   63 1    
   122   62   64 1    
   123   62  123 1    
   124   63  124 1    
   125   63  125 1    
   126   63  126 1    
   127   64   65 am   BACKBONE|DICT|INTERRES
   128   64  127 1    
   129   65   66 2    
@<TRIPOS>SUBSTRUCTURE
     1 UNK         1 GROUP             0       ****    0 ROOT    
