@<TRIPOS>MOLECULE
3R135
127   129    1
SMALL
USER_CHARGES


@<TRIPOS>ATOM
      1 CA        -83.5670   31.2821  -77.2889 C.3       0 UNK        -0.1998 
      2 C         -83.2092   30.0568  -76.4639 C.2       0 UNK         0.4909 
      3 O         -84.1047   29.3832  -75.9570 O.2       0 UNK        -0.5240 
      4 N         -81.9078   29.7717  -76.3258 N.am      1 UNK        -0.4739 
      5 CA        -81.3329   28.6227  -75.6214 C.3       1 UNK         0.0864 
      6 C6        -81.6564   28.6143  -74.0999 C.3       11 UNK        -0.0881 
      7 S7        -80.5400   27.5078  -73.1773 S.3       11 UNK        -0.2682 
      8 C8        -79.3818   28.7109  -72.4425 C.3       11 UNK         0.0289 
      9 C9        -78.0794   28.0749  -71.9660 C.ar      11 UNK        -0.0687 
     10 C10       -78.0842   26.8890  -71.2230 C.ar      11 UNK        -0.0823 
     11 C11       -76.8856   26.3103  -70.7967 C.ar      11 UNK        -0.0830 
     12 C12       -75.6743   26.9401  -71.0886 C.ar      11 UNK        -0.1021 
     13 C13       -75.6528   28.1252  -71.8272 C.ar      11 UNK        -0.0753 
     14 C14       -76.8571   28.6892  -72.2607 C.ar      11 UNK        -0.0933 
     15 C15       -74.3237   28.7673  -72.1895 C.3       11 UNK         0.0166 
     16 S16       -74.0215   30.2756  -71.2172 S.3       11 UNK        -0.2615 
     17 C17       -72.2054   30.4322  -71.3278 C.3       11 UNK        -0.0865 
     18 CA        -71.7256   31.2928  -72.5257 C.3       10 UNK         0.0862 
     19 C         -70.1974   31.5759  -72.4134 C.2       10 UNK         0.5551 
     20 N         -69.3471   31.0303  -73.2762 N.am      10 UNK        -0.7319 
     21 O         -69.7776   32.3094  -71.5219 O.2       10 UNK        -0.5018 
     22 N         -72.1341   30.6995  -73.8065 N.am      10 UNK        -0.4509 
     23 C         -72.1272   31.3223  -74.9906 C.2       10 UNK         0.4899 
     24 O         -71.9056   32.5263  -75.1265 O.2       10 UNK        -0.4839 
     25 CA        -72.4107   30.4477  -76.2314 C.3       9 UNK         0.0222 
     26 CB        -71.6710   30.9570  -77.4856 C.3       9 UNK        -0.1966 
     27 N         -72.1547   29.0115  -76.0346 N.am      9 UNK        -0.4218 
     28 C         -70.9936   28.4290  -75.6840 C.2       9 UNK         0.5020 
     29 O         -69.9640   29.0595  -75.4393 O.2       9 UNK        -0.5274 
     30 CA        -70.9723   26.8955  -75.5263 C.3       8 UNK         0.0270 
     31 CB        -70.9123   26.5175  -74.0367 C.3       8 UNK        -0.1976 
     32 N         -72.1196   26.2260  -76.1433 N.am      8 UNK        -0.4313 
     33 C         -72.3023   26.0959  -77.4668 C.2       8 UNK         0.5041 
     34 O         -71.4614   26.4260  -78.3034 O.2       8 UNK        -0.5577 
     35 CA        -73.6551   25.5367  -77.9517 C.3       7 UNK         0.0284 
     36 CB        -73.5043   24.0693  -78.3824 C.3       7 UNK        -0.1958 
     37 N         -74.7376   25.6418  -76.9674 N.am      7 UNK        -0.4454 
     38 C         -75.1986   26.7863  -76.4378 C.2       7 UNK         0.5089 
     39 O         -74.7901   27.9003  -76.7660 O.2       7 UNK        -0.5125 
     40 CA        -76.2317   26.6775  -75.3031 C.3       6 UNK         0.0408 
     41 CB        -77.6379   26.9962  -75.8280 C.3       6 UNK        -0.1791 
     42 N         -76.2314   25.3780  -74.6193 N.am      6 UNK        -0.4762 
     43 C         -75.1890   24.8814  -73.9293 C.2       6 UNK         0.5007 
     44 O         -74.1284   25.4929  -73.7867 O.2       6 UNK        -0.5032 
     45 CA        -75.2894   23.4409  -73.3786 C.3       5 UNK         0.0783 
     46 C46       -75.3820   23.3886  -71.8295 C.3       11 UNK        -0.0857 
     47 S47       -77.0718   23.5766  -71.1537 S.3       11 UNK        -0.2512 
     48 C48       -76.9038   24.9988  -70.0307 C.3       11 UNK         0.0225 
     49 N         -76.3271   22.6317  -74.0243 N.am      5 UNK        -0.4615 
     50 C         -76.3401   22.2603  -75.3103 C.2       4 UNK         0.5053 
     51 O         -75.4355   22.5205  -76.1034 O.2       4 UNK        -0.5105 
     52 CA        -77.5923   21.5124  -75.8039 C.3       4 UNK         0.0263 
     53 CB        -77.3705   19.9931  -75.7346 C.3       4 UNK        -0.1981 
     54 N         -78.8251   21.8592  -75.0816 N.am      4 UNK        -0.4224 
     55 C         -79.3634   23.0862  -75.0366 C.2       3 UNK         0.4895 
     56 O         -78.8456   24.0775  -75.5523 O.2       3 UNK        -0.5091 
     57 CA        -80.6662   23.2411  -74.2375 C.3       3 UNK         0.0250 
     58 CB        -80.3593   23.6365  -72.7848 C.3       3 UNK        -0.1996 
     59 N         -81.5343   24.2572  -74.8337 N.am      3 UNK        -0.4254 
     60 C         -82.2413   24.0864  -75.9599 C.2       2 UNK         0.5004 
     61 O         -82.2712   23.0292  -76.5918 O.2       2 UNK        -0.5226 
     62 CA        -83.0812   25.2754  -76.4591 C.3       2 UNK         0.0269 
     63 CB        -84.5674   25.0546  -76.1325 C.3       2 UNK        -0.1926 
     64 N         -82.6593   26.5579  -75.8905 N.am      2 UNK        -0.4687 
     65 C         -81.6596   27.3105  -76.3685 C.2       1 UNK         0.5165 
     66 O         -81.0076   27.0167  -77.3712 O.2       1 UNK        -0.5079 
     67 H67       -84.1891   30.9944  -78.1352 H         1 UNK         0.0900 
     68 H68       -82.6832   31.7874  -77.6748 H         1 UNK         0.0900 
     69 H69       -84.1248   31.9934  -76.6808 H         1 UNK         0.0900 
     70 H70       -81.2332   30.3592  -76.7945 H         1 UNK         0.2959 
     71 H71       -80.2542   28.7503  -75.7162 H         1 UNK         0.1079 
     72 H72       -82.6902   28.3310  -73.8993 H         1 UNK         0.0837 
     73 H73       -81.5574   29.6237  -73.6973 H         1 UNK         0.0837 
     74 H74       -79.8663   29.2074  -71.6010 H         1 UNK         0.0685 
     75 H75       -79.1672   29.4839  -73.1821 H         1 UNK         0.0685 
     76 H76       -79.0220   26.4035  -70.9907 H         1 UNK         0.1434 
     77 H77       -74.7446   26.4948  -70.7626 H         1 UNK         0.1329 
     78 H78       -76.8365   29.6058  -72.8342 H         1 UNK         0.1335 
     79 H79       -73.5123   28.0553  -72.0337 H         1 UNK         0.0680 
     80 H80       -74.3204   29.0111  -73.2523 H         1 UNK         0.0680 
     81 H81       -71.8755   30.8826  -70.3894 H         1 UNK         0.1032 
     82 H82       -71.7464   29.4424  -71.3527 H         1 UNK         0.1032 
     83 H83       -72.2171   32.2646  -72.4508 H         1 UNK         0.0461 
     84 H84       -69.6701   30.4165  -74.0174 H         1 UNK         0.3453 
     85 H85       -68.3636   31.2286  -73.1875 H         1 UNK         0.3453 
     86 H86       -72.3135   29.7087  -73.7984 H         1 UNK         0.2984 
     87 H87       -73.4810   30.5359  -76.4214 H         1 UNK         0.0554 
     88 H88       -71.8972   30.3414  -78.3563 H         1 UNK         0.0847 
     89 H89       -70.5898   30.9548  -77.3453 H         1 UNK         0.0847 
     90 H90       -71.9648   31.9785  -77.7289 H         1 UNK         0.0847 
     91 H91       -72.9563   28.4148  -76.2194 H         1 UNK         0.3141 
     92 H92       -70.0630   26.5312  -76.0086 H         1 UNK         0.0743 
     93 H93       -70.0345   26.9526  -73.5573 H         1 UNK         0.0784 
     94 H94       -71.7885   26.8717  -73.4934 H         1 UNK         0.0784 
     95 H95       -70.8508   25.4377  -73.9031 H         1 UNK         0.0784 
     96 H96       -72.8543   25.9183  -75.5155 H         1 UNK         0.3213 
     97 H97       -73.9503   26.1224  -78.8246 H         1 UNK         0.0855 
     98 H98       -72.7407   23.9645  -79.1545 H         1 UNK         0.0814 
     99 H99       -74.4347   23.6763  -78.7924 H         1 UNK         0.0814 
    100 H100      -73.2121   23.4328  -77.5463 H         1 UNK         0.0814 
    101 H101      -75.1214   24.7694  -76.6241 H         1 UNK         0.3105 
    102 H102      -75.9695   27.4334  -74.5639 H         1 UNK         0.0547 
    103 H103      -77.9335   26.3222  -76.6326 H         1 UNK         0.0837 
    104 H104      -78.3807   26.9159  -75.0363 H         1 UNK         0.0837 
    105 H105      -77.6865   28.0123  -76.2206 H         1 UNK         0.0837 
    106 H106      -77.0661   24.8115  -74.7318 H         1 UNK         0.3020 
    107 H107      -74.3355   22.9810  -73.6479 H         1 UNK         0.1245 
    108 H108      -74.7058   24.1124  -71.3715 H         1 UNK         0.0781 
    109 H109      -75.0216   22.4157  -71.4919 H         1 UNK         0.0781 
    110 H110      -76.0064   24.8876  -69.4201 H         1 UNK         0.0836 
    111 H111      -77.7443   24.9971  -69.3351 H         1 UNK         0.0836 
    112 H112      -77.1180   22.3959  -73.4426 H         1 UNK         0.3022 
    113 H113      -77.7386   21.7888  -76.8503 H         1 UNK         0.0747 
    114 H114      -78.2056   19.4488  -76.1760 H         1 UNK         0.0793 
    115 H115      -76.4728   19.7045  -76.2836 H         1 UNK         0.0793 
    116 H116      -77.2486   19.6485  -74.7069 H         1 UNK         0.0793 
    117 H117      -79.3038   21.1005  -74.6171 H         1 UNK         0.3047 
    118 H118      -81.2013   22.2890  -74.2364 H         1 UNK         0.0822 
    119 H119      -79.8053   22.8473  -72.2759 H         1 UNK         0.0807 
    120 H120      -81.2726   23.8068  -72.2144 H         1 UNK         0.0807 
    121 H121      -79.7562   24.5442  -72.7319 H         1 UNK         0.0807 
    122 H122      -81.5228   25.1726  -74.4077 H         1 UNK         0.2946 
    123 H123      -82.9730   25.3142  -77.5456 H         1 UNK         0.1144 
    124 H124      -84.9302   24.1246  -76.5722 H         1 UNK         0.0793 
    125 H125      -85.1838   25.8613  -76.5299 H         1 UNK         0.0793 
    126 H126      -84.7414   24.9963  -75.0575 H         1 UNK         0.0793 
    127 H127      -83.1777   26.8975  -75.0935 H         1 UNK         0.2896 
@<TRIPOS>BOND
     1    1    2 1    
     2    1   67 1    
     3    1   68 1    
     4    1   69 1    
     5    2    3 2    
     6    2    4 am   BACKBONE|DICT|INTERRES
     7    4    5 1    
     8    4   70 1    
     9    5    6 1    
    10    5   65 1    
    11    5   71 1    
    12    6    7 1    
    13    6   72 1    
    14    6   73 1    
    15    7    8 1    
    16    8    9 1    
    17    8   74 1    
    18    8   75 1    
    19    9   10 ar   
    20    9   14 ar   
    21   10   11 ar   
    22   10   76 1    
    23   11   12 ar   
    24   11   48 1    
    25   12   13 ar   
    26   12   77 1    
    27   13   14 ar   
    28   13   15 1    
    29   14   78 1    
    30   15   16 1    
    31   15   79 1    
    32   15   80 1    
    33   16   17 1    
    34   17   18 1    
    35   17   81 1    
    36   17   82 1    
    37   18   19 1    
    38   18   22 1    
    39   18   83 1    
    40   19   20 am   BACKBONE|DICT|INTERRES
    41   19   21 2    
    42   20   84 1    
    43   20   85 1    
    44   22   23 am   BACKBONE|DICT|INTERRES
    45   22   86 1    
    46   23   24 2    
    47   23   25 1    
    48   25   26 1    
    49   25   27 1    
    50   25   87 1    
    51   26   88 1    
    52   26   89 1    
    53   26   90 1    
    54   27   28 am   BACKBONE|DICT|INTERRES
    55   27   91 1    
    56   28   29 2    
    57   28   30 1    
    58   30   31 1    
    59   30   32 1    
    60   30   92 1    
    61   31   93 1    
    62   31   94 1    
    63   31   95 1    
    64   32   33 am   BACKBONE|DICT|INTERRES
    65   32   96 1    
    66   33   34 2    
    67   33   35 1    
    68   35   36 1    
    69   35   37 1    
    70   35   97 1    
    71   36   98 1    
    72   36   99 1    
    73   36  100 1    
    74   37   38 am   BACKBONE|DICT|INTERRES
    75   37  101 1    
    76   38   39 2    
    77   38   40 1    
    78   40   41 1    
    79   40   42 1    
    80   40  102 1    
    81   41  103 1    
    82   41  104 1    
    83   41  105 1    
    84   42   43 am   BACKBONE|DICT|INTERRES
    85   42  106 1    
    86   43   44 2    
    87   43   45 1    
    88   45   46 1    
    89   45   49 1    
    90   45  107 1    
    91   46   47 1    
    92   46  108 1    
    93   46  109 1    
    94   47   48 1    
    95   48  110 1    
    96   48  111 1    
    97   49   50 am   BACKBONE|DICT|INTERRES
    98   49  112 1    
    99   50   51 2    
   100   50   52 1    
   101   52   53 1    
   102   52   54 1    
   103   52  113 1    
   104   53  114 1    
   105   53  115 1    
   106   53  116 1    
   107   54   55 am   BACKBONE|DICT|INTERRES
   108   54  117 1    
   109   55   56 2    
   110   55   57 1    
   111   57   58 1    
   112   57   59 1    
   113   57  118 1    
   114   58  119 1    
   115   58  120 1    
   116   58  121 1    
   117   59   60 am   BACKBONE|DICT|INTERRES
   118   59  122 1    
   119   60   61 2    
   120   60   62 1    
   121   62   63 1    
   122   62   64 1    
   123   62  123 1    
   124   63  124 1    
   125   63  125 1    
   126   63  126 1    
   127   64   65 am   BACKBONE|DICT|INTERRES
   128   64  127 1    
   129   65   66 2    
@<TRIPOS>SUBSTRUCTURE
     1 UNK         1 GROUP             0       ****    0 ROOT    
