@<TRIPOS>MOLECULE
3R135
127   129    1
SMALL
USER_CHARGES


@<TRIPOS>ATOM
      1 CA        -81.0786   26.0099  -72.1881 C.3       0 UNK        -0.1998 
      2 C         -82.4897   26.5857  -72.2304 C.2       0 UNK         0.4909 
      3 O         -83.3247   26.1650  -71.4326 O.2       0 UNK        -0.5240 
      4 N         -82.8312   27.5251  -73.1266 N.am      1 UNK        -0.4739 
      5 CA        -82.0385   28.1896  -74.1815 C.3       1 UNK         0.0864 
      6 C6        -80.7237   28.8698  -73.7016 C.3       11 UNK        -0.0881 
      7 S7        -80.9586   29.9536  -72.2529 S.3       11 UNK        -0.2682 
      8 C8        -79.2911   30.6732  -72.0623 C.3       11 UNK         0.0289 
      9 C9        -78.1875   29.6393  -71.8471 C.ar      11 UNK        -0.0687 
     10 C10       -78.3660   28.5609  -70.9716 C.ar      11 UNK        -0.0823 
     11 C11       -77.3586   27.6075  -70.7929 C.ar      11 UNK        -0.0830 
     12 C12       -76.1427   27.7716  -71.4620 C.ar      11 UNK        -0.1021 
     13 C13       -75.9440   28.8477  -72.3283 C.ar      11 UNK        -0.0753 
     14 C14       -76.9697   29.7765  -72.5220 C.ar      11 UNK        -0.0933 
     15 C15       -74.6282   28.9689  -73.0758 C.3       11 UNK         0.0166 
     16 S16       -73.3166   29.6601  -72.0203 S.3       11 UNK        -0.2615 
     17 C17       -73.3895   31.4308  -72.4721 C.3       11 UNK        -0.0865 
     18 CA        -72.3156   31.8491  -73.5151 C.3       10 UNK         0.0862 
     19 C         -70.9051   32.0039  -72.8780 C.2       10 UNK         0.5551 
     20 N         -70.6469   33.1292  -72.2250 N.am      10 UNK        -0.7319 
     21 O         -70.0599   31.1133  -72.9381 O.2       10 UNK        -0.5018 
     22 N         -72.3421   30.9569  -74.6814 N.am      10 UNK        -0.4509 
     23 C         -71.7534   31.1771  -75.8605 C.2       10 UNK         0.4899 
     24 O         -71.1460   32.2117  -76.1416 O.2       10 UNK        -0.4839 
     25 CA        -71.9189   30.0634  -76.9140 C.3       9 UNK         0.0222 
     26 CB        -70.8804   30.1496  -78.0533 C.3       9 UNK        -0.1966 
     27 N         -71.9745   28.7077  -76.3458 N.am      9 UNK        -0.4218 
     28 C         -70.9889   28.0474  -75.7111 C.2       9 UNK         0.5020 
     29 O         -69.8844   28.5348  -75.4696 O.2       9 UNK        -0.5274 
     30 CA        -71.2544   26.5857  -75.2840 C.3       8 UNK         0.0270 
     31 CB        -71.4039   26.4733  -73.7580 C.3       8 UNK        -0.1976 
     32 N         -72.4195   25.9758  -75.9329 N.am      8 UNK        -0.4313 
     33 C         -72.4918   25.6820  -77.2400 C.2       8 UNK         0.5041 
     34 O         -71.5327   25.7717  -78.0078 O.2       8 UNK        -0.5577 
     35 CA        -73.8594   25.2522  -77.8090 C.3       7 UNK         0.0284 
     36 CB        -73.8495   23.7508  -78.1385 C.3       7 UNK        -0.1958 
     37 N         -75.0236   25.5745  -76.9676 N.am      7 UNK        -0.4454 
     38 C         -75.3709   26.8114  -76.5744 C.2       7 UNK         0.5089 
     39 O         -74.7303   27.8201  -76.8752 O.2       7 UNK        -0.5125 
     40 CA        -76.5979   26.9731  -75.6588 C.3       6 UNK         0.0408 
     41 CB        -77.7919   27.5453  -76.4349 C.3       6 UNK        -0.1791 
     42 N         -77.0108   25.7735  -74.9226 N.am      6 UNK        -0.4762 
     43 C         -76.2746   25.1646  -73.9769 C.2       6 UNK         0.5007 
     44 O         -75.0992   25.4519  -73.7443 O.2       6 UNK        -0.5032 
     45 CA        -76.9505   24.0356  -73.1749 C.3       5 UNK         0.0783 
     46 C46       -77.8457   24.5817  -72.0314 C.3       11 UNK        -0.0857 
     47 S47       -76.9138   24.8378  -70.4838 S.3       11 UNK        -0.2512 
     48 C48       -77.5939   26.4182  -69.8648 C.3       11 UNK         0.0225 
     49 N         -77.7018   23.1631  -74.0788 N.am      5 UNK        -0.4615 
     50 C         -77.3894   21.8848  -74.3316 C.2       4 UNK         0.5053 
     51 O         -76.5141   21.2591  -73.7325 O.2       4 UNK        -0.5105 
     52 CA        -78.1646   21.1756  -75.4601 C.3       4 UNK         0.0263 
     53 CB        -79.3354   20.3680  -74.8766 C.3       4 UNK        -0.1981 
     54 N         -78.6751   22.0725  -76.5018 N.am      4 UNK        -0.4224 
     55 C         -77.9402   22.9285  -77.2272 C.2       3 UNK         0.4895 
     56 O         -76.7186   23.0315  -77.1375 O.2       3 UNK        -0.5091 
     57 CA        -78.6958   23.8815  -78.1677 C.3       3 UNK         0.0250 
     58 CB        -78.7304   23.3052  -79.5918 C.3       3 UNK        -0.1996 
     59 N         -80.0624   24.2202  -77.7461 N.am      3 UNK        -0.4254 
     60 C         -80.4299   24.7192  -76.5563 C.2       2 UNK         0.5004 
     61 O         -79.6571   24.8882  -75.6055 O.2       2 UNK        -0.5226 
     62 CA        -81.9320   25.0148  -76.3945 C.3       2 UNK         0.0269 
     63 CB        -82.6829   23.7287  -76.0111 C.3       2 UNK        -0.1926 
     64 N         -82.1983   26.0313  -75.3759 N.am      2 UNK        -0.4687 
     65 C         -81.7958   27.3090  -75.4284 C.2       1 UNK         0.5165 
     66 O         -81.2644   27.8073  -76.4215 O.2       1 UNK        -0.5079 
     67 H67       -80.6283   25.9154  -73.1734 H         1 UNK         0.0900 
     68 H68       -80.4424   26.6401  -71.5704 H         1 UNK         0.0900 
     69 H69       -81.0919   25.0149  -71.7438 H         1 UNK         0.0900 
     70 H70       -83.7882   27.8490  -73.0914 H         1 UNK         0.2959 
     71 H71       -82.6853   28.9921  -74.5404 H         1 UNK         0.1079 
     72 H72       -80.3087   29.4829  -74.5041 H         1 UNK         0.0837 
     73 H73       -79.9544   28.1322  -73.4735 H         1 UNK         0.0837 
     74 H74       -79.0792   31.2828  -72.9422 H         1 UNK         0.0685 
     75 H75       -79.3000   31.3540  -71.2103 H         1 UNK         0.0685 
     76 H76       -79.3005   28.4592  -70.4374 H         1 UNK         0.1434 
     77 H77       -75.3477   27.0513  -71.3245 H         1 UNK         0.1329 
     78 H78       -76.8189   30.6062  -73.1988 H         1 UNK         0.1335 
     79 H79       -74.7523   29.5642  -73.9815 H         1 UNK         0.0680 
     80 H80       -74.3229   27.9795  -73.4133 H         1 UNK         0.0680 
     81 H81       -74.3834   31.6614  -72.8583 H         1 UNK         0.1032 
     82 H82       -73.2980   32.0250  -71.5608 H         1 UNK         0.1032 
     83 H83       -72.5970   32.8378  -73.8839 H         1 UNK         0.0461 
     84 H84       -69.7438   33.2474  -71.7926 H         1 UNK         0.3453 
     85 H85       -71.3312   33.8671  -72.1627 H         1 UNK         0.3453 
     86 H86       -72.7578   30.0528  -74.5211 H         1 UNK         0.2984 
     87 H87       -72.8997   30.2286  -77.3624 H         1 UNK         0.0554 
     88 H88       -70.9564   31.1010  -78.5811 H         1 UNK         0.0847 
     89 H89       -71.0320   29.3597  -78.7890 H         1 UNK         0.0847 
     90 H90       -69.8596   30.0686  -77.6788 H         1 UNK         0.0847 
     91 H91       -72.8577   28.2246  -76.4927 H         1 UNK         0.3141 
     92 H92       -70.3742   26.0084  -75.5751 H         1 UNK         0.0743 
     93 H93       -72.2803   27.0062  -73.3942 H         1 UNK         0.0784 
     94 H94       -71.4915   25.4332  -73.4434 H         1 UNK         0.0784 
     95 H95       -70.5356   26.8931  -73.2481 H         1 UNK         0.0784 
     96 H96       -73.2488   25.8496  -75.3660 H         1 UNK         0.3213 
     97 H97       -73.9842   25.7985  -78.7462 H         1 UNK         0.0855 
     98 H98       -73.8617   23.1391  -77.2356 H         1 UNK         0.0814 
     99 H99       -72.9610   23.4752  -78.7085 H         1 UNK         0.0814 
    100 H100      -74.7106   23.4751  -78.7468 H         1 UNK         0.0814 
    101 H101      -75.6096   24.7933  -76.6920 H         1 UNK         0.3105 
    102 H102      -76.3257   27.7174  -74.9115 H         1 UNK         0.0547 
    103 H103      -77.5197   28.4678  -76.9495 H         1 UNK         0.0837 
    104 H104      -78.1644   26.8522  -77.1866 H         1 UNK         0.0837 
    105 H105      -78.6158   27.7847  -75.7639 H         1 UNK         0.0837 
    106 H106      -77.9665   25.4641  -75.0842 H         1 UNK         0.3020 
    107 H107      -76.1369   23.4628  -72.7235 H         1 UNK         0.1245 
    108 H108      -78.6398   23.8700  -71.7998 H         1 UNK         0.0781 
    109 H109      -78.3487   25.5019  -72.3293 H         1 UNK         0.0781 
    110 H110      -77.1377   26.6387  -68.8990 H         1 UNK         0.0836 
    111 H111      -78.6602   26.2823  -69.6774 H         1 UNK         0.0836 
    112 H112      -78.4343   23.6016  -74.6270 H         1 UNK         0.3022 
    113 H113      -77.4719   20.4819  -75.9411 H         1 UNK         0.0747 
    114 H114      -79.8350   19.7785  -75.6455 H         1 UNK         0.0793 
    115 H115      -78.9868   19.6708  -74.1131 H         1 UNK         0.0793 
    116 H116      -80.0796   21.0157  -74.4109 H         1 UNK         0.0793 
    117 H117      -79.6737   22.0721  -76.6466 H         1 UNK         0.3047 
    118 H118      -78.1252   24.8103  -78.1985 H         1 UNK         0.0822 
    119 H119      -79.1522   24.0187  -80.3001 H         1 UNK         0.0807 
    120 H120      -79.3210   22.3895  -79.6434 H         1 UNK         0.0807 
    121 H121      -77.7248   23.0644  -79.9405 H         1 UNK         0.0807 
    122 H122      -80.7778   24.0947  -78.4483 H         1 UNK         0.2946 
    123 H123      -82.3175   25.3866  -77.3467 H         1 UNK         0.1144 
    124 H124      -83.7547   23.9068  -75.9205 H         1 UNK         0.0793 
    125 H125      -82.3290   23.3229  -75.0620 H         1 UNK         0.0793 
    126 H126      -82.5510   22.9529  -76.7666 H         1 UNK         0.0793 
    127 H127      -82.6511   25.7155  -74.5314 H         1 UNK         0.2896 
@<TRIPOS>BOND
     1    1    2 1    
     2    1   67 1    
     3    1   68 1    
     4    1   69 1    
     5    2    3 2    
     6    2    4 am   BACKBONE|DICT|INTERRES
     7    4    5 1    
     8    4   70 1    
     9    5    6 1    
    10    5   65 1    
    11    5   71 1    
    12    6    7 1    
    13    6   72 1    
    14    6   73 1    
    15    7    8 1    
    16    8    9 1    
    17    8   74 1    
    18    8   75 1    
    19    9   10 ar   
    20    9   14 ar   
    21   10   11 ar   
    22   10   76 1    
    23   11   12 ar   
    24   11   48 1    
    25   12   13 ar   
    26   12   77 1    
    27   13   14 ar   
    28   13   15 1    
    29   14   78 1    
    30   15   16 1    
    31   15   79 1    
    32   15   80 1    
    33   16   17 1    
    34   17   18 1    
    35   17   81 1    
    36   17   82 1    
    37   18   19 1    
    38   18   22 1    
    39   18   83 1    
    40   19   20 am   BACKBONE|DICT|INTERRES
    41   19   21 2    
    42   20   84 1    
    43   20   85 1    
    44   22   23 am   BACKBONE|DICT|INTERRES
    45   22   86 1    
    46   23   24 2    
    47   23   25 1    
    48   25   26 1    
    49   25   27 1    
    50   25   87 1    
    51   26   88 1    
    52   26   89 1    
    53   26   90 1    
    54   27   28 am   BACKBONE|DICT|INTERRES
    55   27   91 1    
    56   28   29 2    
    57   28   30 1    
    58   30   31 1    
    59   30   32 1    
    60   30   92 1    
    61   31   93 1    
    62   31   94 1    
    63   31   95 1    
    64   32   33 am   BACKBONE|DICT|INTERRES
    65   32   96 1    
    66   33   34 2    
    67   33   35 1    
    68   35   36 1    
    69   35   37 1    
    70   35   97 1    
    71   36   98 1    
    72   36   99 1    
    73   36  100 1    
    74   37   38 am   BACKBONE|DICT|INTERRES
    75   37  101 1    
    76   38   39 2    
    77   38   40 1    
    78   40   41 1    
    79   40   42 1    
    80   40  102 1    
    81   41  103 1    
    82   41  104 1    
    83   41  105 1    
    84   42   43 am   BACKBONE|DICT|INTERRES
    85   42  106 1    
    86   43   44 2    
    87   43   45 1    
    88   45   46 1    
    89   45   49 1    
    90   45  107 1    
    91   46   47 1    
    92   46  108 1    
    93   46  109 1    
    94   47   48 1    
    95   48  110 1    
    96   48  111 1    
    97   49   50 am   BACKBONE|DICT|INTERRES
    98   49  112 1    
    99   50   51 2    
   100   50   52 1    
   101   52   53 1    
   102   52   54 1    
   103   52  113 1    
   104   53  114 1    
   105   53  115 1    
   106   53  116 1    
   107   54   55 am   BACKBONE|DICT|INTERRES
   108   54  117 1    
   109   55   56 2    
   110   55   57 1    
   111   57   58 1    
   112   57   59 1    
   113   57  118 1    
   114   58  119 1    
   115   58  120 1    
   116   58  121 1    
   117   59   60 am   BACKBONE|DICT|INTERRES
   118   59  122 1    
   119   60   61 2    
   120   60   62 1    
   121   62   63 1    
   122   62   64 1    
   123   62  123 1    
   124   63  124 1    
   125   63  125 1    
   126   63  126 1    
   127   64   65 am   BACKBONE|DICT|INTERRES
   128   64  127 1    
   129   65   66 2    
@<TRIPOS>SUBSTRUCTURE
     1 UNK         1 GROUP             0       ****    0 ROOT    
