@<TRIPOS>MOLECULE
3R135
127   129    1
SMALL
USER_CHARGES


@<TRIPOS>ATOM
      1 CA        -82.8393   23.6053  -71.4556 C.3       0 UNK        -0.1998 
      2 C         -81.6527   24.2706  -70.7616 C.2       0 UNK         0.4909 
      3 O         -81.2238   23.7913  -69.7133 O.2       0 UNK        -0.5240 
      4 N         -81.0983   25.3747  -71.2821 N.am      1 UNK        -0.4739 
      5 CA        -81.4424   26.0378  -72.5482 C.3       1 UNK         0.0864 
      6 C6        -80.8324   27.4593  -72.6263 C.3       11 UNK        -0.0881 
      7 S7        -81.4968   28.5650  -71.3347 S.3       11 UNK        -0.2682 
      8 C8        -79.9950   28.9580  -70.3683 C.3       11 UNK         0.0289 
      9 C9        -78.9251   29.7854  -71.0885 C.ar      11 UNK        -0.0687 
     10 C10       -79.1337   30.3848  -72.3380 C.ar      11 UNK        -0.0823 
     11 C11       -78.1199   31.1168  -72.9618 C.ar      11 UNK        -0.0830 
     12 C12       -76.8873   31.2681  -72.3213 C.ar      11 UNK        -0.1021 
     13 C13       -76.6652   30.6937  -71.0660 C.ar      11 UNK        -0.0753 
     14 C14       -77.6891   29.9589  -70.4582 C.ar      11 UNK        -0.0933 
     15 C15       -75.3287   30.8995  -70.3604 C.3       11 UNK         0.0166 
     16 S16       -74.5835   29.3540  -69.7406 S.3       11 UNK        -0.2615 
     17 C17       -74.2475   28.4529  -71.2911 C.3       11 UNK        -0.0865 
     18 CA        -72.8695   28.7913  -71.9233 C.3       10 UNK         0.0862 
     19 C         -71.6865   28.0375  -71.2377 C.2       10 UNK         0.5551 
     20 N         -70.8821   27.2536  -71.9465 N.am      10 UNK        -0.7319 
     21 O         -71.4767   28.1774  -70.0358 O.2       10 UNK        -0.5018 
     22 N         -72.9310   28.6248  -73.3820 N.am      10 UNK        -0.4509 
     23 C         -72.1383   29.2424  -74.2651 C.2       10 UNK         0.4899 
     24 O         -71.3121   30.1028  -73.9559 O.2       10 UNK        -0.4839 
     25 CA        -72.2932   28.8114  -75.7390 C.3       9 UNK         0.0222 
     26 CB        -71.1332   29.3034  -76.6300 C.3       9 UNK        -0.1966 
     27 N         -72.4900   27.3637  -75.9152 N.am      9 UNK        -0.4218 
     28 C         -71.6874   26.3814  -75.4735 C.2       9 UNK         0.5020 
     29 O         -70.6662   26.5781  -74.8133 O.2       9 UNK        -0.5274 
     30 CA        -72.0809   24.9282  -75.7925 C.3       8 UNK         0.0270 
     31 CB        -72.6021   24.2203  -74.5327 C.3       8 UNK        -0.1976 
     32 N         -73.0629   24.7937  -76.8739 N.am      8 UNK        -0.4313 
     33 C         -72.7481   24.8748  -78.1744 C.2       8 UNK         0.5041 
     34 O         -71.6218   25.1530  -78.5880 O.2       8 UNK        -0.5577 
     35 CA        -73.8641   24.5920  -79.1861 C.3       7 UNK         0.0284 
     36 CB        -74.2277   23.0965  -79.2088 C.3       7 UNK        -0.1958 
     37 N         -75.0574   25.3907  -78.8987 N.am      7 UNK        -0.4454 
     38 C         -75.5721   26.2987  -79.7381 C.2       7 UNK         0.5089 
     39 O         -75.0889   26.5677  -80.8389 O.2       7 UNK        -0.5125 
     40 CA        -76.8538   27.0298  -79.3048 C.3       6 UNK         0.0408 
     41 CB        -78.0956   26.3185  -79.8654 C.3       6 UNK        -0.1791 
     42 N         -77.0083   27.2117  -77.8594 N.am      6 UNK        -0.4762 
     43 C         -76.2589   28.0408  -77.1174 C.2       6 UNK         0.5007 
     44 O         -75.2422   28.5946  -77.5333 O.2       6 UNK        -0.5032 
     45 CA        -76.7298   28.2994  -75.6746 C.3       5 UNK         0.0783 
     46 C46       -77.9449   29.2616  -75.6376 C.3       11 UNK        -0.0857 
     47 S47       -77.4014   31.0053  -75.6619 S.3       11 UNK        -0.2512 
     48 C48       -78.3739   31.7618  -74.3186 C.3       11 UNK         0.0225 
     49 N         -77.0137   27.0310  -75.0071 N.am      5 UNK        -0.4615 
     50 C         -76.1320   26.3818  -74.2366 C.2       4 UNK         0.5053 
     51 O         -75.0194   26.8205  -73.9510 O.2       4 UNK        -0.5105 
     52 CA        -76.5346   24.9829  -73.7391 C.3       4 UNK         0.0263 
     53 CB        -77.2762   25.0824  -72.3980 C.3       4 UNK        -0.1981 
     54 N         -77.3387   24.2426  -74.7167 N.am      4 UNK        -0.4224 
     55 C         -76.9042   23.9235  -75.9473 C.2       3 UNK         0.4895 
     56 O         -75.7661   24.1690  -76.3507 O.2       3 UNK        -0.5091 
     57 CA        -77.8998   23.2766  -76.9251 C.3       3 UNK         0.0250 
     58 CB        -77.7117   21.7521  -76.9419 C.3       3 UNK        -0.1996 
     59 N         -79.3087   23.5887  -76.6684 N.am      3 UNK        -0.4254 
     60 C         -79.8534   24.8119  -76.5911 C.2       2 UNK         0.5004 
     61 O         -79.2152   25.8592  -76.7226 O.2       2 UNK        -0.5226 
     62 CA        -81.3531   24.8907  -76.2440 C.3       2 UNK         0.0269 
     63 CB        -82.0886   23.5312  -76.2943 C.3       2 UNK        -0.1926 
     64 N         -81.5783   25.5329  -74.9420 N.am      2 UNK        -0.4687 
     65 C         -81.0135   25.1984  -73.7710 C.2       1 UNK         0.5165 
     66 O         -80.1892   24.2884  -73.6413 O.2       1 UNK        -0.5079 
     67 H67       -82.5233   23.1098  -72.3730 H         1 UNK         0.0900 
     68 H68       -83.2807   22.8481  -70.8078 H         1 UNK         0.0900 
     69 H69       -83.6211   24.3259  -71.6913 H         1 UNK         0.0900 
     70 H70       -80.3163   25.7818  -70.7924 H         1 UNK         0.2959 
     71 H71       -82.5281   26.1409  -72.5924 H         1 UNK         0.1079 
     72 H72       -81.0546   27.9276  -73.5872 H         1 UNK         0.0837 
     73 H73       -79.7440   27.4203  -72.5605 H         1 UNK         0.0837 
     74 H74       -80.3033   29.5024  -69.4748 H         1 UNK         0.0685 
     75 H75       -79.5537   28.0225  -70.0213 H         1 UNK         0.0685 
     76 H76       -80.0851   30.2883  -72.8398 H         1 UNK         0.1434 
     77 H77       -76.1054   31.8411  -72.8011 H         1 UNK         0.1329 
     78 H78       -77.5199   29.5173  -69.4854 H         1 UNK         0.1335 
     79 H79       -74.6125   31.3911  -71.0206 H         1 UNK         0.0680 
     80 H80       -75.4824   31.5741  -69.5173 H         1 UNK         0.0680 
     81 H81       -74.3368   27.3805  -71.1075 H         1 UNK         0.1032 
     82 H82       -75.0530   28.6876  -71.9886 H         1 UNK         0.1032 
     83 H83       -72.6814   29.8516  -71.7454 H         1 UNK         0.0461 
     84 H84       -70.9919   27.1478  -72.9495 H         1 UNK         0.3453 
     85 H85       -70.1222   26.7861  -71.4792 H         1 UNK         0.3453 
     86 H86       -73.5869   27.9193  -73.7132 H         1 UNK         0.2984 
     87 H87       -73.2035   29.2947  -76.0919 H         1 UNK         0.0554 
     88 H88       -71.0505   30.3906  -76.6029 H         1 UNK         0.0847 
     89 H89       -71.2852   29.0179  -77.6709 H         1 UNK         0.0847 
     90 H90       -70.1749   28.8953  -76.3066 H         1 UNK         0.0847 
     91 H91       -73.3200   27.0949  -76.4245 H         1 UNK         0.3141 
     92 H92       -71.1679   24.4134  -76.1000 H         1 UNK         0.0743 
     93 H93       -73.4610   24.7363  -74.1114 H         1 UNK         0.0784 
     94 H94       -72.8929   23.1906  -74.7412 H         1 UNK         0.0784 
     95 H95       -71.8345   24.1914  -73.7582 H         1 UNK         0.0784 
     96 H96       -74.0144   24.5402  -76.6094 H         1 UNK         0.3213 
     97 H97       -73.4648   24.8417  -80.1716 H         1 UNK         0.0855 
     98 H98       -74.6149   22.7496  -78.2510 H         1 UNK         0.0814 
     99 H99       -73.3532   22.4883  -79.4438 H         1 UNK         0.0814 
    100 H100      -74.9810   22.8860  -79.9680 H         1 UNK         0.0814 
    101 H101      -75.5056   25.2331  -78.0025 H         1 UNK         0.3105 
    102 H102      -76.8175   28.0256  -79.7522 H         1 UNK         0.0547 
    103 H103      -78.0338   26.2222  -80.9503 H         1 UNK         0.0837 
    104 H104      -78.2090   25.3152  -79.4569 H         1 UNK         0.0837 
    105 H105      -79.0062   26.8747  -79.6424 H         1 UNK         0.0837 
    106 H106      -77.8242   26.7721  -77.4354 H         1 UNK         0.3020 
    107 H107      -75.9028   28.7871  -75.1519 H         1 UNK         0.1245 
    108 H108      -78.5256   29.0857  -74.7326 H         1 UNK         0.0781 
    109 H109      -78.6394   29.0853  -76.4617 H         1 UNK         0.0781 
    110 H110      -79.4320   31.7146  -74.5814 H         1 UNK         0.0836 
    111 H111      -78.1250   32.8223  -74.2601 H         1 UNK         0.0836 
    112 H112      -77.8792   26.5695  -75.2615 H         1 UNK         0.3022 
    113 H113      -75.6232   24.4087  -73.5711 H         1 UNK         0.0747 
    114 H114      -77.5556   24.0980  -72.0221 H         1 UNK         0.0793 
    115 H115      -76.6481   25.5543  -71.6410 H         1 UNK         0.0793 
    116 H116      -78.1834   25.6780  -72.4818 H         1 UNK         0.0793 
    117 H117      -78.2998   24.0382  -74.4599 H         1 UNK         0.3047 
    118 H118      -77.6586   23.6553  -77.9190 H         1 UNK         0.0822 
    119 H119      -78.3260   21.2839  -77.7113 H         1 UNK         0.0807 
    120 H120      -77.9720   21.3027  -75.9827 H         1 UNK         0.0807 
    121 H121      -76.6747   21.4877  -77.1548 H         1 UNK         0.0807 
    122 H122      -79.9156   22.7989  -76.5034 H         1 UNK         0.2946 
    123 H123      -81.7989   25.5386  -77.0009 H         1 UNK         0.1144 
    124 H124      -83.1582   23.6636  -76.1308 H         1 UNK         0.0793 
    125 H125      -81.7286   22.8354  -75.5352 H         1 UNK         0.0793 
    126 H126      -81.9767   23.0543  -77.2692 H         1 UNK         0.0793 
    127 H127      -82.2154   26.3176  -74.9586 H         1 UNK         0.2896 
@<TRIPOS>BOND
     1    1    2 1    
     2    1   67 1    
     3    1   68 1    
     4    1   69 1    
     5    2    3 2    
     6    2    4 am   BACKBONE|DICT|INTERRES
     7    4    5 1    
     8    4   70 1    
     9    5    6 1    
    10    5   65 1    
    11    5   71 1    
    12    6    7 1    
    13    6   72 1    
    14    6   73 1    
    15    7    8 1    
    16    8    9 1    
    17    8   74 1    
    18    8   75 1    
    19    9   10 ar   
    20    9   14 ar   
    21   10   11 ar   
    22   10   76 1    
    23   11   12 ar   
    24   11   48 1    
    25   12   13 ar   
    26   12   77 1    
    27   13   14 ar   
    28   13   15 1    
    29   14   78 1    
    30   15   16 1    
    31   15   79 1    
    32   15   80 1    
    33   16   17 1    
    34   17   18 1    
    35   17   81 1    
    36   17   82 1    
    37   18   19 1    
    38   18   22 1    
    39   18   83 1    
    40   19   20 am   BACKBONE|DICT|INTERRES
    41   19   21 2    
    42   20   84 1    
    43   20   85 1    
    44   22   23 am   BACKBONE|DICT|INTERRES
    45   22   86 1    
    46   23   24 2    
    47   23   25 1    
    48   25   26 1    
    49   25   27 1    
    50   25   87 1    
    51   26   88 1    
    52   26   89 1    
    53   26   90 1    
    54   27   28 am   BACKBONE|DICT|INTERRES
    55   27   91 1    
    56   28   29 2    
    57   28   30 1    
    58   30   31 1    
    59   30   32 1    
    60   30   92 1    
    61   31   93 1    
    62   31   94 1    
    63   31   95 1    
    64   32   33 am   BACKBONE|DICT|INTERRES
    65   32   96 1    
    66   33   34 2    
    67   33   35 1    
    68   35   36 1    
    69   35   37 1    
    70   35   97 1    
    71   36   98 1    
    72   36   99 1    
    73   36  100 1    
    74   37   38 am   BACKBONE|DICT|INTERRES
    75   37  101 1    
    76   38   39 2    
    77   38   40 1    
    78   40   41 1    
    79   40   42 1    
    80   40  102 1    
    81   41  103 1    
    82   41  104 1    
    83   41  105 1    
    84   42   43 am   BACKBONE|DICT|INTERRES
    85   42  106 1    
    86   43   44 2    
    87   43   45 1    
    88   45   46 1    
    89   45   49 1    
    90   45  107 1    
    91   46   47 1    
    92   46  108 1    
    93   46  109 1    
    94   47   48 1    
    95   48  110 1    
    96   48  111 1    
    97   49   50 am   BACKBONE|DICT|INTERRES
    98   49  112 1    
    99   50   51 2    
   100   50   52 1    
   101   52   53 1    
   102   52   54 1    
   103   52  113 1    
   104   53  114 1    
   105   53  115 1    
   106   53  116 1    
   107   54   55 am   BACKBONE|DICT|INTERRES
   108   54  117 1    
   109   55   56 2    
   110   55   57 1    
   111   57   58 1    
   112   57   59 1    
   113   57  118 1    
   114   58  119 1    
   115   58  120 1    
   116   58  121 1    
   117   59   60 am   BACKBONE|DICT|INTERRES
   118   59  122 1    
   119   60   61 2    
   120   60   62 1    
   121   62   63 1    
   122   62   64 1    
   123   62  123 1    
   124   63  124 1    
   125   63  125 1    
   126   63  126 1    
   127   64   65 am   BACKBONE|DICT|INTERRES
   128   64  127 1    
   129   65   66 2    
@<TRIPOS>SUBSTRUCTURE
     1 UNK         1 GROUP             0       ****    0 ROOT    
