@<TRIPOS>MOLECULE
3R135
127   129    1
SMALL
USER_CHARGES


@<TRIPOS>ATOM
      1 CA        -83.9075   25.0880  -75.3059 C.3       0 UNK        -0.1998 
      2 C         -82.8793   26.1035  -74.8322 C.2       0 UNK         0.4909 
      3 O         -82.4392   26.9405  -75.6209 O.2       0 UNK        -0.5240 
      4 N         -82.4818   26.0256  -73.5540 N.am      1 UNK        -0.4739 
      5 CA        -81.4753   26.8806  -72.9093 C.3       1 UNK         0.0864 
      6 C6        -81.3485   26.5450  -71.3949 C.3       11 UNK        -0.0881 
      7 S7        -81.0914   27.9430  -70.2383 S.3       11 UNK        -0.2682 
      8 C8        -80.0329   29.1686  -71.0927 C.3       11 UNK         0.0289 
      9 C9        -78.5689   28.7824  -71.3228 C.ar      11 UNK        -0.0687 
     10 C10       -78.0184   27.5587  -70.9170 C.ar      11 UNK        -0.0823 
     11 C11       -76.6813   27.2495  -71.1858 C.ar      11 UNK        -0.0830 
     12 C12       -75.8781   28.1825  -71.8466 C.ar      11 UNK        -0.1021 
     13 C13       -76.4019   29.4203  -72.2276 C.ar      11 UNK        -0.0753 
     14 C14       -77.7451   29.7078  -71.9716 C.ar      11 UNK        -0.0933 
     15 C15       -75.5109   30.4607  -72.8858 C.3       11 UNK         0.0166 
     16 S16       -74.7102   31.4873  -71.6151 S.3       11 UNK        -0.2615 
     17 C17       -73.9034   32.7939  -72.6062 C.3       11 UNK        -0.0865 
     18 CA        -72.9006   32.2922  -73.6815 C.3       10 UNK         0.0862 
     19 C         -72.1757   33.4952  -74.3545 C.2       10 UNK         0.5551 
     20 N         -70.8633   33.6412  -74.2203 N.am      10 UNK        -0.7319 
     21 O         -72.8208   34.3106  -75.0090 O.2       10 UNK        -0.5018 
     22 N         -72.0237   31.2285  -73.1630 N.am      10 UNK        -0.4509 
     23 C         -71.3141   30.3833  -73.9197 C.2       10 UNK         0.4899 
     24 O         -71.2185   30.4822  -75.1445 O.2       10 UNK        -0.4839 
     25 CA        -70.5806   29.2300  -73.2005 C.3       9 UNK         0.0222 
     26 CB        -71.0113   29.0203  -71.7288 C.3       9 UNK        -0.1966 
     27 N         -70.6857   27.9768  -73.9601 N.am      9 UNK        -0.4218 
     28 C         -71.8156   27.3299  -74.2829 C.2       9 UNK         0.5020 
     29 O         -72.9391   27.6426  -73.8796 O.2       9 UNK        -0.5274 
     30 CA        -71.6598   26.1047  -75.1989 C.3       8 UNK         0.0270 
     31 CB        -71.6052   24.8146  -74.3657 C.3       8 UNK        -0.1976 
     32 N         -72.7720   26.0324  -76.1495 N.am      8 UNK        -0.4313 
     33 C         -72.9246   26.8725  -77.1849 C.2       8 UNK         0.5041 
     34 O         -72.0578   27.6788  -77.5292 O.2       8 UNK        -0.5577 
     35 CA        -74.2643   26.8390  -77.9501 C.3       7 UNK         0.0284 
     36 CB        -74.1215   27.2565  -79.4297 C.3       7 UNK        -0.1958 
     37 N         -74.9980   25.5760  -77.8292 N.am      7 UNK        -0.4454 
     38 C         -74.6205   24.3638  -78.2587 C.2       7 UNK         0.5089 
     39 O         -73.5710   24.1432  -78.8657 O.2       7 UNK        -0.5125 
     40 CA        -75.5840   23.2043  -77.9335 C.3       6 UNK         0.0408 
     41 CB        -74.9269   21.8182  -78.0994 C.3       6 UNK        -0.1791 
     42 N         -76.2100   23.3161  -76.6091 N.am      6 UNK        -0.4762 
     43 C         -75.5943   23.3969  -75.4174 C.2       6 UNK         0.5007 
     44 O         -74.3703   23.4420  -75.2990 O.2       6 UNK        -0.5032 
     45 CA        -76.4674   23.4410  -74.1407 C.3       5 UNK         0.0783 
     46 C46       -76.0966   24.6489  -73.2435 C.3       11 UNK        -0.0857 
     47 S47       -76.8554   24.5063  -71.5927 S.3       11 UNK        -0.2512 
     48 C48       -76.1006   25.9190  -70.7283 C.3       11 UNK         0.0225 
     49 N         -77.9051   23.4122  -74.4323 N.am      5 UNK        -0.4615 
     50 C         -78.6106   22.3290  -74.7804 C.2       4 UNK         0.5053 
     51 O         -78.1471   21.1896  -74.8162 O.2       4 UNK        -0.5105 
     52 CA        -80.0606   22.5750  -75.2290 C.3       4 UNK         0.0263 
     53 CB        -81.0185   22.5878  -74.0265 C.3       4 UNK        -0.1981 
     54 N         -80.1844   23.8264  -75.9845 N.am      4 UNK        -0.4224 
     55 C         -79.7492   23.9935  -77.2431 C.2       3 UNK         0.4895 
     56 O         -79.2609   23.0893  -77.9200 O.2       3 UNK        -0.5091 
     57 CA        -79.8349   25.4079  -77.8411 C.3       3 UNK         0.0250 
     58 CB        -81.1718   25.6097  -78.5713 C.3       3 UNK        -0.1996 
     59 N         -79.6541   26.4573  -76.8354 N.am      3 UNK        -0.4254 
     60 C         -78.4712   26.7632  -76.2795 C.2       2 UNK         0.5004 
     61 O         -77.4102   26.2278  -76.5965 O.2       2 UNK        -0.5226 
     62 CA        -78.4697   27.8079  -75.1495 C.3       2 UNK         0.0269 
     63 CB        -78.2297   29.2148  -75.7181 C.3       2 UNK        -0.1926 
     64 N         -79.6966   27.8020  -74.3466 N.am      2 UNK        -0.4687 
     65 C         -80.1253   26.7448  -73.6429 C.2       1 UNK         0.5165 
     66 O         -79.5347   25.6639  -73.6178 O.2       1 UNK        -0.5079 
     67 H67       -84.7586   25.5987  -75.7553 H         1 UNK         0.0900 
     68 H68       -83.4687   24.4312  -76.0564 H         1 UNK         0.0900 
     69 H69       -84.2774   24.4700  -74.4880 H         1 UNK         0.0900 
     70 H70       -82.8736   25.3032  -72.9671 H         1 UNK         0.2959 
     71 H71       -81.8421   27.9024  -73.0165 H         1 UNK         0.1079 
     72 H72       -82.2713   26.0762  -71.0493 H         1 UNK         0.0837 
     73 H73       -80.5825   25.7890  -71.2098 H         1 UNK         0.0837 
     74 H74       -80.0395   30.0710  -70.4798 H         1 UNK         0.0685 
     75 H75       -80.4897   29.4571  -72.0386 H         1 UNK         0.0685 
     76 H76       -78.6195   26.8273  -70.3983 H         1 UNK         0.1434 
     77 H77       -74.8384   27.9588  -72.0450 H         1 UNK         0.1329 
     78 H78       -78.1490   30.6654  -72.2711 H         1 UNK         0.1335 
     79 H79       -76.0950   31.0924  -73.5568 H         1 UNK         0.0680 
     80 H80       -74.7516   29.9684  -73.4960 H         1 UNK         0.0680 
     81 H81       -73.3961   33.4584  -71.9039 H         1 UNK         0.1032 
     82 H82       -74.6843   33.3976  -73.0731 H         1 UNK         0.1032 
     83 H83       -73.4916   31.8360  -74.4780 H         1 UNK         0.0461 
     84 H84       -70.3295   32.9709  -73.6906 H         1 UNK         0.3453 
     85 H85       -70.4027   34.4218  -74.6612 H         1 UNK         0.3453 
     86 H86       -72.0572   31.0799  -72.1654 H         1 UNK         0.2984 
     87 H87       -69.5229   29.4970  -73.1996 H         1 UNK         0.0554 
     88 H88       -70.7645   29.8869  -71.1144 H         1 UNK         0.0847 
     89 H89       -70.4966   28.1665  -71.2881 H         1 UNK         0.0847 
     90 H90       -72.0835   28.8408  -71.6353 H         1 UNK         0.0847 
     91 H91       -69.8208   27.6454  -74.3644 H         1 UNK         0.3141 
     92 H92       -70.7296   26.1917  -75.7645 H         1 UNK         0.0743 
     93 H93       -70.7433   24.8174  -73.6974 H         1 UNK         0.0784 
     94 H94       -71.5212   23.9331  -75.0019 H         1 UNK         0.0784 
     95 H95       -72.4956   24.6971  -73.7468 H         1 UNK         0.0784 
     96 H96       -73.5139   25.3787  -75.9301 H         1 UNK         0.3213 
     97 H97       -74.8935   27.5857  -77.4630 H         1 UNK         0.0855 
     98 H98       -73.4437   26.5975  -79.9729 H         1 UNK         0.0814 
     99 H99       -73.7253   28.2690  -79.5145 H         1 UNK         0.0814 
    100 H100      -75.0844   27.2445  -79.9402 H         1 UNK         0.0814 
    101 H101      -75.8912   25.6503  -77.3390 H         1 UNK         0.3105 
    102 H102      -76.3961   23.2738  -78.6585 H         1 UNK         0.0547 
    103 H103      -75.6342   21.0164  -77.8876 H         1 UNK         0.0837 
    104 H104      -74.0707   21.6953  -77.4353 H         1 UNK         0.0837 
    105 H105      -74.5706   21.6727  -79.1198 H         1 UNK         0.0837 
    106 H106      -77.2211   23.3203  -76.6101 H         1 UNK         0.3020 
    107 H107      -76.2186   22.5302  -73.5912 H         1 UNK         0.1245 
    108 H108      -76.4121   25.5863  -73.7047 H         1 UNK         0.0781 
    109 H109      -75.0162   24.7206  -73.1043 H         1 UNK         0.0781 
    110 H110      -75.0183   25.8932  -70.8647 H         1 UNK         0.0836 
    111 H111      -76.2750   25.8079  -69.6573 H         1 UNK         0.0836 
    112 H112      -78.3969   24.2960  -74.3280 H         1 UNK         0.3022 
    113 H113      -80.3519   21.7495  -75.8823 H         1 UNK         0.0747 
    114 H114      -82.0520   22.7246  -74.3438 H         1 UNK         0.0793 
    115 H115      -80.9700   21.6424  -73.4846 H         1 UNK         0.0793 
    116 H116      -80.7755   23.3783  -73.3164 H         1 UNK         0.0793 
    117 H117      -80.4924   24.6383  -75.4681 H         1 UNK         0.3047 
    118 H118      -79.0333   25.5014  -78.5776 H         1 UNK         0.0822 
    119 H119      -81.2234   26.5929  -79.0394 H         1 UNK         0.0807 
    120 H120      -82.0232   25.5149  -77.8975 H         1 UNK         0.0807 
    121 H121      -81.2990   24.8683  -79.3613 H         1 UNK         0.0807 
    122 H122      -80.4917   26.9172  -76.4936 H         1 UNK         0.2946 
    123 H123      -77.6409   27.5630  -74.4812 H         1 UNK         0.1144 
    124 H124      -78.1484   29.9567  -74.9241 H         1 UNK         0.0793 
    125 H125      -79.0344   29.5237  -76.3864 H         1 UNK         0.0793 
    126 H126      -77.2997   29.2501  -76.2874 H         1 UNK         0.0793 
    127 H127      -80.2609   28.6386  -74.3751 H         1 UNK         0.2896 
@<TRIPOS>BOND
     1    1    2 1    
     2    1   67 1    
     3    1   68 1    
     4    1   69 1    
     5    2    3 2    
     6    2    4 am   BACKBONE|DICT|INTERRES
     7    4    5 1    
     8    4   70 1    
     9    5    6 1    
    10    5   65 1    
    11    5   71 1    
    12    6    7 1    
    13    6   72 1    
    14    6   73 1    
    15    7    8 1    
    16    8    9 1    
    17    8   74 1    
    18    8   75 1    
    19    9   10 ar   
    20    9   14 ar   
    21   10   11 ar   
    22   10   76 1    
    23   11   12 ar   
    24   11   48 1    
    25   12   13 ar   
    26   12   77 1    
    27   13   14 ar   
    28   13   15 1    
    29   14   78 1    
    30   15   16 1    
    31   15   79 1    
    32   15   80 1    
    33   16   17 1    
    34   17   18 1    
    35   17   81 1    
    36   17   82 1    
    37   18   19 1    
    38   18   22 1    
    39   18   83 1    
    40   19   20 am   BACKBONE|DICT|INTERRES
    41   19   21 2    
    42   20   84 1    
    43   20   85 1    
    44   22   23 am   BACKBONE|DICT|INTERRES
    45   22   86 1    
    46   23   24 2    
    47   23   25 1    
    48   25   26 1    
    49   25   27 1    
    50   25   87 1    
    51   26   88 1    
    52   26   89 1    
    53   26   90 1    
    54   27   28 am   BACKBONE|DICT|INTERRES
    55   27   91 1    
    56   28   29 2    
    57   28   30 1    
    58   30   31 1    
    59   30   32 1    
    60   30   92 1    
    61   31   93 1    
    62   31   94 1    
    63   31   95 1    
    64   32   33 am   BACKBONE|DICT|INTERRES
    65   32   96 1    
    66   33   34 2    
    67   33   35 1    
    68   35   36 1    
    69   35   37 1    
    70   35   97 1    
    71   36   98 1    
    72   36   99 1    
    73   36  100 1    
    74   37   38 am   BACKBONE|DICT|INTERRES
    75   37  101 1    
    76   38   39 2    
    77   38   40 1    
    78   40   41 1    
    79   40   42 1    
    80   40  102 1    
    81   41  103 1    
    82   41  104 1    
    83   41  105 1    
    84   42   43 am   BACKBONE|DICT|INTERRES
    85   42  106 1    
    86   43   44 2    
    87   43   45 1    
    88   45   46 1    
    89   45   49 1    
    90   45  107 1    
    91   46   47 1    
    92   46  108 1    
    93   46  109 1    
    94   47   48 1    
    95   48  110 1    
    96   48  111 1    
    97   49   50 am   BACKBONE|DICT|INTERRES
    98   49  112 1    
    99   50   51 2    
   100   50   52 1    
   101   52   53 1    
   102   52   54 1    
   103   52  113 1    
   104   53  114 1    
   105   53  115 1    
   106   53  116 1    
   107   54   55 am   BACKBONE|DICT|INTERRES
   108   54  117 1    
   109   55   56 2    
   110   55   57 1    
   111   57   58 1    
   112   57   59 1    
   113   57  118 1    
   114   58  119 1    
   115   58  120 1    
   116   58  121 1    
   117   59   60 am   BACKBONE|DICT|INTERRES
   118   59  122 1    
   119   60   61 2    
   120   60   62 1    
   121   62   63 1    
   122   62   64 1    
   123   62  123 1    
   124   63  124 1    
   125   63  125 1    
   126   63  126 1    
   127   64   65 am   BACKBONE|DICT|INTERRES
   128   64  127 1    
   129   65   66 2    
@<TRIPOS>SUBSTRUCTURE
     1 UNK         1 GROUP             0       ****    0 ROOT    
