@<TRIPOS>MOLECULE
3R135
127   129    1
SMALL
USER_CHARGES


@<TRIPOS>ATOM
      1 CA        -84.4989   25.7027  -73.4547 C.3       0 UNK        -0.1998 
      2 C         -83.1785   26.3580  -73.8286 C.2       0 UNK         0.4909 
      3 O         -82.1295   25.7244  -73.7076 O.2       0 UNK        -0.5240 
      4 N         -83.2254   27.6133  -74.2993 N.am      1 UNK        -0.4739 
      5 CA        -82.1050   28.4748  -74.7153 C.3       1 UNK         0.0864 
      6 C6        -81.0840   28.7387  -73.5754 C.3       11 UNK        -0.0881 
      7 S7        -80.1331   30.2748  -73.8334 S.3       11 UNK        -0.2682 
      8 C8        -78.5261   29.6263  -74.3916 C.3       11 UNK         0.0289 
      9 C9        -77.6653   29.1744  -73.2225 C.ar      11 UNK        -0.0687 
     10 C10       -77.5573   27.8185  -72.8976 C.ar      11 UNK        -0.0823 
     11 C11       -76.7612   27.4100  -71.8224 C.ar      11 UNK        -0.0830 
     12 C12       -76.0751   28.3681  -71.0702 C.ar      11 UNK        -0.1021 
     13 C13       -76.1532   29.7228  -71.4038 C.ar      11 UNK        -0.0753 
     14 C14       -76.9571   30.1202  -72.4753 C.ar      11 UNK        -0.0933 
     15 C15       -75.3739   30.7611  -70.6109 C.3       11 UNK         0.0166 
     16 S16       -73.7867   31.1644  -71.4079 S.3       11 UNK        -0.2615 
     17 C17       -72.7419   29.7682  -70.8650 C.3       11 UNK        -0.0865 
     18 CA        -71.4708   29.5972  -71.7348 C.3       10 UNK         0.0862 
     19 C         -70.5456   28.5047  -71.1304 C.2       10 UNK         0.5551 
     20 N         -69.6165   28.8898  -70.2663 N.am      10 UNK        -0.7319 
     21 O         -70.6930   27.3146  -71.4014 O.2       10 UNK        -0.5018 
     22 N         -71.8221   29.3362  -73.1370 N.am      10 UNK        -0.4509 
     23 C         -70.9625   29.2707  -74.1622 C.2       10 UNK         0.4899 
     24 O         -69.7521   29.4742  -74.0616 O.2       10 UNK        -0.4839 
     25 CA        -71.5516   28.9288  -75.5428 C.3       9 UNK         0.0222 
     26 CB        -71.3660   27.4344  -75.8450 C.3       9 UNK        -0.1966 
     27 N         -72.9721   29.2669  -75.6541 N.am      9 UNK        -0.4218 
     28 C         -73.4652   30.5044  -75.7765 C.2       9 UNK         0.5020 
     29 O         -72.7602   31.5089  -75.8917 O.2       9 UNK        -0.5274 
     30 CA        -75.0028   30.6320  -75.7657 C.3       8 UNK         0.0270 
     31 CB        -75.4785   32.0904  -75.9094 C.3       8 UNK        -0.1976 
     32 N         -75.6646   29.8105  -76.7866 N.am      8 UNK        -0.4313 
     33 C         -75.8038   28.4788  -76.7457 C.2       8 UNK         0.5041 
     34 O         -75.3373   27.7844  -75.8402 O.2       8 UNK        -0.5577 
     35 CA        -76.6380   27.8254  -77.8644 C.3       7 UNK         0.0284 
     36 CB        -76.4642   28.4972  -79.2455 C.3       7 UNK        -0.1958 
     37 N         -76.4212   26.3733  -77.9326 N.am      7 UNK        -0.4454 
     38 C         -75.3155   25.7291  -78.3320 C.2       7 UNK         0.5089 
     39 O         -74.3324   26.2689  -78.8438 O.2       7 UNK        -0.5125 
     40 CA        -75.3239   24.2131  -78.0637 C.3       6 UNK         0.0408 
     41 CB        -74.2039   23.4491  -78.8030 C.3       6 UNK        -0.1791 
     42 N         -75.3049   23.9548  -76.6178 N.am      6 UNK        -0.4762 
     43 C         -74.3159   24.2458  -75.7541 C.2       6 UNK         0.5007 
     44 O         -73.1999   24.6388  -76.0921 O.2       6 UNK        -0.5032 
     45 CA        -74.6063   24.0715  -74.2502 C.3       5 UNK         0.0783 
     46 C46       -74.7990   25.4484  -73.5740 C.3       11 UNK        -0.0857 
     47 S47       -74.9403   25.3172  -71.7594 S.3       11 UNK        -0.2512 
     48 C48       -76.6316   25.9333  -71.4742 C.3       11 UNK         0.0225 
     49 N         -75.7452   23.1855  -74.0010 N.am      5 UNK        -0.4615 
     50 C         -75.6896   21.8523  -73.9846 C.2       4 UNK         0.5053 
     51 O         -74.6696   21.2068  -74.2261 O.2       4 UNK        -0.5105 
     52 CA        -76.9883   21.1084  -73.6321 C.3       4 UNK         0.0263 
     53 CB        -77.2956   21.2132  -72.1245 C.3       4 UNK        -0.1981 
     54 N         -78.1517   21.4871  -74.4478 N.am      4 UNK        -0.4224 
     55 C         -78.8088   22.6553  -74.5002 C.2       3 UNK         0.4895 
     56 O         -78.5055   23.6590  -73.8502 O.2       3 UNK        -0.5091 
     57 CA        -80.0417   22.6683  -75.4187 C.3       3 UNK         0.0250 
     58 CB        -81.2535   22.0675  -74.6863 C.3       3 UNK        -0.1996 
     59 N         -80.4094   23.9992  -75.9014 N.am      3 UNK        -0.4254 
     60 C         -79.6685   24.7820  -76.6985 C.2       2 UNK         0.5004 
     61 O         -78.5246   24.5188  -77.0726 O.2       2 UNK        -0.5226 
     62 CA        -80.3296   26.0805  -77.1702 C.3       2 UNK         0.0269 
     63 CB        -81.2781   25.8122  -78.3540 C.3       2 UNK        -0.1926 
     64 N         -81.0379   26.7260  -76.0682 N.am      2 UNK        -0.4687 
     65 C         -81.4126   28.0061  -76.0151 C.2       1 UNK         0.5165 
     66 O         -81.2345   28.8052  -76.9353 O.2       1 UNK        -0.5079 
     67 H67       -85.3467   26.3674  -73.6197 H         1 UNK         0.0900 
     68 H68       -84.4900   25.4186  -72.4028 H         1 UNK         0.0900 
     69 H69       -84.6519   24.8025  -74.0494 H         1 UNK         0.0900 
     70 H70       -84.1340   28.0457  -74.3992 H         1 UNK         0.2959 
     71 H71       -82.5772   29.4289  -74.9572 H         1 UNK         0.1079 
     72 H72       -80.4163   27.8885  -73.4298 H         1 UNK         0.0837 
     73 H73       -81.6144   28.8566  -72.6293 H         1 UNK         0.0837 
     74 H74       -78.6736   28.8127  -75.1030 H         1 UNK         0.0685 
     75 H75       -78.0073   30.4134  -74.9388 H         1 UNK         0.0685 
     76 H76       -78.0868   27.0803  -73.4845 H         1 UNK         0.1434 
     77 H77       -75.4625   28.0515  -70.2374 H         1 UNK         0.1329 
     78 H78       -77.0274   31.1682  -72.7331 H         1 UNK         0.1335 
     79 H79       -75.1991   30.4184  -69.5897 H         1 UNK         0.0680 
     80 H80       -75.9653   31.6741  -70.5273 H         1 UNK         0.0680 
     81 H81       -73.3248   28.8466  -70.8785 H         1 UNK         0.1032 
     82 H82       -72.4722   29.9430  -69.8215 H         1 UNK         0.1032 
     83 H83       -70.9227   30.5416  -71.7206 H         1 UNK         0.0461 
     84 H84       -69.4940   29.8625  -70.0304 H         1 UNK         0.3453 
     85 H85       -69.0164   28.1948  -69.8502 H         1 UNK         0.3453 
     86 H86       -72.7975   29.1557  -73.3186 H         1 UNK         0.2984 
     87 H87       -71.0025   29.5009  -76.2935 H         1 UNK         0.0554 
     88 H88       -71.7709   27.1693  -76.8224 H         1 UNK         0.0847 
     89 H89       -71.8600   26.8098  -75.0999 H         1 UNK         0.0847 
     90 H90       -70.3093   27.1640  -75.8460 H         1 UNK         0.0847 
     91 H91       -73.6485   28.5046  -75.6115 H         1 UNK         0.3141 
     92 H92       -75.3286   30.2782  -74.7861 H         1 UNK         0.0743 
     93 H93       -75.0558   32.7169  -75.1226 H         1 UNK         0.0784 
     94 H94       -75.1786   32.5203  -76.8659 H         1 UNK         0.0784 
     95 H95       -76.5627   32.1687  -75.8310 H         1 UNK         0.0784 
     96 H96       -76.0423   30.3070  -77.5804 H         1 UNK         0.3213 
     97 H97       -77.6758   27.9636  -77.5655 H         1 UNK         0.0855 
     98 H98       -76.8781   29.5058  -79.2541 H         1 UNK         0.0814 
     99 H99       -76.9843   27.9383  -80.0236 H         1 UNK         0.0814 
    100 H100      -75.4153   28.5713  -79.5353 H         1 UNK         0.0814 
    101 H101      -77.1457   25.7987  -77.5092 H         1 UNK         0.3105 
    102 H102      -76.2737   23.8266  -78.4362 H         1 UNK         0.0547 
    103 H103      -74.3094   23.5642  -79.8822 H         1 UNK         0.0837 
    104 H104      -73.2100   23.8114  -78.5401 H         1 UNK         0.0837 
    105 H105      -74.2407   22.3822  -78.5844 H         1 UNK         0.0837 
    106 H106      -76.1871   23.6566  -76.2241 H         1 UNK         0.3020 
    107 H107      -73.7141   23.6117  -73.8182 H         1 UNK         0.1245 
    108 H108      -75.6800   25.9453  -73.9819 H         1 UNK         0.0781 
    109 H109      -73.9559   26.1081  -73.7883 H         1 UNK         0.0781 
    110 H110      -76.8880   25.7898  -70.4238 H         1 UNK         0.0836 
    111 H111      -77.3378   25.3300  -72.0464 H         1 UNK         0.0836 
    112 H112      -76.6438   23.6221  -73.8089 H         1 UNK         0.3022 
    113 H113      -76.8099   20.0541  -73.8511 H         1 UNK         0.0747 
    114 H114      -78.1698   20.6198  -71.8567 H         1 UNK         0.0793 
    115 H115      -76.4585   20.8431  -71.5312 H         1 UNK         0.0793 
    116 H116      -77.4811   22.2415  -71.8125 H         1 UNK         0.0793 
    117 H117      -78.4915   20.7460  -75.0458 H         1 UNK         0.3047 
    118 H118      -79.8209   22.0556  -76.2955 H         1 UNK         0.0822 
    119 H119      -82.1215   21.9985  -75.3425 H         1 UNK         0.0807 
    120 H120      -81.5353   22.6684  -73.8199 H         1 UNK         0.0807 
    121 H121      -81.0417   21.0591  -74.3279 H         1 UNK         0.0807 
    122 H122      -81.3206   24.3281  -75.6181 H         1 UNK         0.2946 
    123 H123      -79.5391   26.7475  -77.5114 H         1 UNK         0.1144 
    124 H124      -81.6674   26.7402  -78.7727 H         1 UNK         0.0793 
    125 H125      -82.1285   25.1964  -78.0592 H         1 UNK         0.0793 
    126 H126      -80.7589   25.2906  -79.1593 H         1 UNK         0.0793 
    127 H127      -81.2117   26.1686  -75.2335 H         1 UNK         0.2896 
@<TRIPOS>BOND
     1    1    2 1    
     2    1   67 1    
     3    1   68 1    
     4    1   69 1    
     5    2    3 2    
     6    2    4 am   BACKBONE|DICT|INTERRES
     7    4    5 1    
     8    4   70 1    
     9    5    6 1    
    10    5   65 1    
    11    5   71 1    
    12    6    7 1    
    13    6   72 1    
    14    6   73 1    
    15    7    8 1    
    16    8    9 1    
    17    8   74 1    
    18    8   75 1    
    19    9   10 ar   
    20    9   14 ar   
    21   10   11 ar   
    22   10   76 1    
    23   11   12 ar   
    24   11   48 1    
    25   12   13 ar   
    26   12   77 1    
    27   13   14 ar   
    28   13   15 1    
    29   14   78 1    
    30   15   16 1    
    31   15   79 1    
    32   15   80 1    
    33   16   17 1    
    34   17   18 1    
    35   17   81 1    
    36   17   82 1    
    37   18   19 1    
    38   18   22 1    
    39   18   83 1    
    40   19   20 am   BACKBONE|DICT|INTERRES
    41   19   21 2    
    42   20   84 1    
    43   20   85 1    
    44   22   23 am   BACKBONE|DICT|INTERRES
    45   22   86 1    
    46   23   24 2    
    47   23   25 1    
    48   25   26 1    
    49   25   27 1    
    50   25   87 1    
    51   26   88 1    
    52   26   89 1    
    53   26   90 1    
    54   27   28 am   BACKBONE|DICT|INTERRES
    55   27   91 1    
    56   28   29 2    
    57   28   30 1    
    58   30   31 1    
    59   30   32 1    
    60   30   92 1    
    61   31   93 1    
    62   31   94 1    
    63   31   95 1    
    64   32   33 am   BACKBONE|DICT|INTERRES
    65   32   96 1    
    66   33   34 2    
    67   33   35 1    
    68   35   36 1    
    69   35   37 1    
    70   35   97 1    
    71   36   98 1    
    72   36   99 1    
    73   36  100 1    
    74   37   38 am   BACKBONE|DICT|INTERRES
    75   37  101 1    
    76   38   39 2    
    77   38   40 1    
    78   40   41 1    
    79   40   42 1    
    80   40  102 1    
    81   41  103 1    
    82   41  104 1    
    83   41  105 1    
    84   42   43 am   BACKBONE|DICT|INTERRES
    85   42  106 1    
    86   43   44 2    
    87   43   45 1    
    88   45   46 1    
    89   45   49 1    
    90   45  107 1    
    91   46   47 1    
    92   46  108 1    
    93   46  109 1    
    94   47   48 1    
    95   48  110 1    
    96   48  111 1    
    97   49   50 am   BACKBONE|DICT|INTERRES
    98   49  112 1    
    99   50   51 2    
   100   50   52 1    
   101   52   53 1    
   102   52   54 1    
   103   52  113 1    
   104   53  114 1    
   105   53  115 1    
   106   53  116 1    
   107   54   55 am   BACKBONE|DICT|INTERRES
   108   54  117 1    
   109   55   56 2    
   110   55   57 1    
   111   57   58 1    
   112   57   59 1    
   113   57  118 1    
   114   58  119 1    
   115   58  120 1    
   116   58  121 1    
   117   59   60 am   BACKBONE|DICT|INTERRES
   118   59  122 1    
   119   60   61 2    
   120   60   62 1    
   121   62   63 1    
   122   62   64 1    
   123   62  123 1    
   124   63  124 1    
   125   63  125 1    
   126   63  126 1    
   127   64   65 am   BACKBONE|DICT|INTERRES
   128   64  127 1    
   129   65   66 2    
@<TRIPOS>SUBSTRUCTURE
     1 UNK         1 GROUP             0       ****    0 ROOT    
