@<TRIPOS>MOLECULE
3R135
127   129    1
SMALL
USER_CHARGES


@<TRIPOS>ATOM
      1 CA        -83.1839   26.5443  -77.2708 C.3       0 UNK        -0.1998 
      2 C         -82.3659   27.3821  -76.3002 C.2       0 UNK         0.4909 
      3 O         -81.5965   28.2403  -76.7342 O.2       0 UNK        -0.5240 
      4 N         -82.5226   27.1361  -74.9907 N.am      1 UNK        -0.4739 
      5 CA        -81.7804   27.7919  -73.9054 C.3       1 UNK         0.0864 
      6 C6        -82.2874   27.3356  -72.5059 C.3       11 UNK        -0.0881 
      7 S7        -82.4627   28.6478  -71.2408 S.3       11 UNK        -0.2682 
      8 C8        -80.8726   29.5580  -71.2036 C.3       11 UNK         0.0289 
      9 C9        -79.6309   28.7932  -70.7315 C.ar      11 UNK        -0.0687 
     10 C10       -79.6843   27.5106  -70.1685 C.ar      11 UNK        -0.0823 
     11 C11       -78.5131   26.8500  -69.7816 C.ar      11 UNK        -0.0830 
     12 C12       -77.2817   27.4944  -69.9236 C.ar      11 UNK        -0.1021 
     13 C13       -77.2054   28.7631  -70.4997 C.ar      11 UNK        -0.0753 
     14 C14       -78.3837   29.4122  -70.8813 C.ar      11 UNK        -0.0933 
     15 C15       -75.8451   29.4013  -70.7480 C.3       11 UNK         0.0166 
     16 S16       -74.9126   28.4657  -72.0040 S.3       11 UNK        -0.2615 
     17 C17       -73.4097   29.4829  -72.2059 C.3       11 UNK        -0.0865 
     18 CA        -73.3861   30.2757  -73.5418 C.3       10 UNK         0.0862 
     19 C         -72.1256   31.1885  -73.6316 C.2       10 UNK         0.5551 
     20 N         -71.2788   31.0757  -74.6493 N.am      10 UNK        -0.7319 
     21 O         -71.9144   32.0239  -72.7560 O.2       10 UNK        -0.5018 
     22 N         -73.5844   29.3932  -74.7033 N.am      10 UNK        -0.4509 
     23 C         -74.0096   29.7888  -75.9093 C.2       10 UNK         0.4899 
     24 O         -74.3383   30.9457  -76.1759 O.2       10 UNK        -0.4839 
     25 CA        -74.0666   28.6955  -76.9930 C.3       9 UNK         0.0222 
     26 CB        -74.2772   29.2589  -78.4134 C.3       9 UNK        -0.1966 
     27 N         -72.9157   27.7843  -76.9594 N.am      9 UNK        -0.4218 
     28 C         -71.6165   28.1169  -77.0576 C.2       9 UNK         0.5020 
     29 O         -71.2188   29.2779  -77.1668 O.2       9 UNK        -0.5274 
     30 CA        -70.5670   26.9888  -76.9792 C.3       8 UNK         0.0270 
     31 CB        -69.7113   27.1443  -75.7095 C.3       8 UNK        -0.1976 
     32 N         -71.1407   25.6421  -76.9934 N.am      8 UNK        -0.4313 
     33 C         -71.6615   25.0239  -78.0625 C.2       8 UNK         0.5041 
     34 O         -71.6247   25.4818  -79.2046 O.2       8 UNK        -0.5577 
     35 CA        -72.3758   23.6823  -77.8029 C.3       7 UNK         0.0284 
     36 CB        -71.4503   22.5039  -78.1468 C.3       7 UNK        -0.1958 
     37 N         -72.8637   23.5322  -76.4238 N.am      7 UNK        -0.4454 
     38 C         -73.8064   24.3014  -75.8612 C.2       7 UNK         0.5089 
     39 O         -74.3750   25.2199  -76.4513 O.2       7 UNK        -0.5125 
     40 CA        -74.0733   24.0678  -74.3715 C.3       6 UNK         0.0408 
     41 CB        -73.3125   25.1017  -73.5231 C.3       6 UNK        -0.1791 
     42 N         -75.5018   24.1738  -74.0815 N.am      6 UNK        -0.4762 
     43 C         -76.1539   23.3773  -73.2215 C.2       6 UNK         0.5007 
     44 O         -75.6188   22.4391  -72.6273 O.2       6 UNK        -0.5032 
     45 CA        -77.6532   23.6505  -72.9813 C.3       5 UNK         0.0783 
     46 C46       -77.8824   24.7675  -71.9373 C.3       11 UNK        -0.0857 
     47 S47       -77.5093   24.2745  -70.2195 S.3       11 UNK        -0.2512 
     48 C48       -78.5735   25.4162  -69.2646 C.3       11 UNK         0.0225 
     49 N         -78.3731   23.9570  -74.2149 N.am      5 UNK        -0.4615 
     50 C         -78.6280   23.0976  -75.2080 C.2       4 UNK         0.5053 
     51 O         -78.2600   21.9231  -75.2157 O.2       4 UNK        -0.5105 
     52 CA        -79.4475   23.6450  -76.3860 C.3       4 UNK         0.0263 
     53 CB        -80.9514   23.6104  -76.0664 C.3       4 UNK        -0.1981 
     54 N         -79.0471   25.0144  -76.7120 N.am      4 UNK        -0.4224 
     55 C         -78.0453   25.3218  -77.5471 C.2       3 UNK         0.4895 
     56 O         -77.4327   24.4873  -78.2140 O.2       3 UNK        -0.5091 
     57 CA        -77.6634   26.8067  -77.6812 C.3       3 UNK         0.0250 
     58 CB        -78.2968   27.4148  -78.9427 C.3       3 UNK        -0.1996 
     59 N         -78.0303   27.6263  -76.5229 N.am      3 UNK        -0.4254 
     60 C         -77.4455   27.5547  -75.3186 C.2       2 UNK         0.5004 
     61 O         -76.5493   26.7654  -75.0297 O.2       2 UNK        -0.5226 
     62 CA        -77.9993   28.4893  -74.2336 C.3       2 UNK         0.0269 
     63 CB        -77.4346   29.9094  -74.3924 C.3       2 UNK        -0.1926 
     64 N         -79.4616   28.5597  -74.1963 N.am      2 UNK        -0.4687 
     65 C         -80.2754   27.5057  -74.0592 C.2       1 UNK         0.5165 
     66 O         -79.8911   26.3349  -74.0699 O.2       1 UNK        -0.5079 
     67 H67       -83.8917   27.1763  -77.8062 H         1 UNK         0.0900 
     68 H68       -82.5283   26.0722  -78.0021 H         1 UNK         0.0900 
     69 H69       -83.7439   25.7601  -76.7618 H         1 UNK         0.0900 
     70 H70       -83.1582   26.4058  -74.7036 H         1 UNK         0.2959 
     71 H71       -81.9556   28.8638  -74.0166 H         1 UNK         0.1079 
     72 H72       -83.2880   26.9108  -72.6015 H         1 UNK         0.0837 
     73 H73       -81.6914   26.5179  -72.0952 H         1 UNK         0.0837 
     74 H74       -80.6903   29.9904  -72.1866 H         1 UNK         0.0685 
     75 H75       -81.0060   30.4071  -70.5319 H         1 UNK         0.0685 
     76 H76       -80.6325   27.0094  -70.0423 H         1 UNK         0.1434 
     77 H77       -76.3720   26.9818  -69.6411 H         1 UNK         0.1329 
     78 H78       -78.3288   30.3984  -71.3206 H         1 UNK         0.1335 
     79 H79       -75.2787   29.4272  -69.8160 H         1 UNK         0.0680 
     80 H80       -75.9572   30.4345  -71.0804 H         1 UNK         0.0680 
     81 H81       -73.3236   30.1613  -71.3549 H         1 UNK         0.1032 
     82 H82       -72.5447   28.8200  -72.1463 H         1 UNK         0.1032 
     83 H83       -74.2345   30.9621  -73.5156 H         1 UNK         0.0461 
     84 H84       -71.4468   30.4210  -75.4033 H         1 UNK         0.3453 
     85 H85       -70.4738   31.6803  -74.6847 H         1 UNK         0.3453 
     86 H86       -73.3544   28.4212  -74.5665 H         1 UNK         0.2984 
     87 H87       -74.9332   28.0838  -76.7520 H         1 UNK         0.0554 
     88 H88       -75.1999   29.8376  -78.4717 H         1 UNK         0.0847 
     89 H89       -74.3520   28.4584  -79.1493 H         1 UNK         0.0847 
     90 H90       -73.4597   29.9158  -78.7123 H         1 UNK         0.0847 
     91 H91       -73.1608   26.8045  -76.8528 H         1 UNK         0.3141 
     92 H92       -69.9149   27.0937  -77.8489 H         1 UNK         0.0743 
     93 H93       -70.3118   27.0581  -74.8029 H         1 UNK         0.0784 
     94 H94       -68.9241   26.3913  -75.6656 H         1 UNK         0.0784 
     95 H95       -69.2225   28.1195  -75.6830 H         1 UNK         0.0784 
     96 H96       -71.1974   25.1666  -76.1052 H         1 UNK         0.3213 
     97 H97       -73.2422   23.6445  -78.4672 H         1 UNK         0.0855 
     98 H98       -70.5721   22.4760  -77.5005 H         1 UNK         0.0814 
     99 H99       -71.0946   22.5755  -79.1758 H         1 UNK         0.0814 
    100 H100      -71.9692   21.5497  -78.0525 H         1 UNK         0.0814 
    101 H101      -72.4365   22.8030  -75.8696 H         1 UNK         0.3105 
    102 H102      -73.7097   23.0698  -74.1178 H         1 UNK         0.0547 
    103 H103      -72.2388   25.0554  -73.7077 H         1 UNK         0.0837 
    104 H104      -73.6426   26.1180  -73.7429 H         1 UNK         0.0837 
    105 H105      -73.4652   24.9285  -72.4577 H         1 UNK         0.0837 
    106 H106      -75.9878   24.9370  -74.5512 H         1 UNK         0.3020 
    107 H107      -78.0864   22.7277  -72.5883 H         1 UNK         0.1245 
    108 H108      -78.9313   25.0674  -71.9577 H         1 UNK         0.0781 
    109 H109      -77.3107   25.6628  -72.1917 H         1 UNK         0.0781 
    110 H110      -78.2672   25.3985  -68.2180 H         1 UNK         0.0836 
    111 H111      -79.5968   25.0385  -69.2931 H         1 UNK         0.0836 
    112 H112      -78.7731   24.8906  -74.2684 H         1 UNK         0.3022 
    113 H113      -79.2734   22.9960  -77.2472 H         1 UNK         0.0747 
    114 H114      -81.5436   23.9356  -76.9213 H         1 UNK         0.0793 
    115 H115      -81.2725   22.5979  -75.8182 H         1 UNK         0.0793 
    116 H116      -81.2045   24.2485  -75.2190 H         1 UNK         0.0793 
    117 H117      -79.4668   25.7552  -76.1653 H         1 UNK         0.3047 
    118 H118      -76.5781   26.8419  -77.7932 H         1 UNK         0.0822 
    119 H119      -77.9516   28.4358  -79.1067 H         1 UNK         0.0807 
    120 H120      -79.3858   27.4331  -78.8781 H         1 UNK         0.0807 
    121 H121      -78.0314   26.8387  -79.8304 H         1 UNK         0.0807 
    122 H122      -78.7975   28.2733  -76.6452 H         1 UNK         0.2946 
    123 H123      -77.6710   28.0875  -73.2732 H         1 UNK         0.1144 
    124 H124      -77.8263   30.5875  -73.6356 H         1 UNK         0.0793 
    125 H125      -77.6609   30.3334  -75.3715 H         1 UNK         0.0793 
    126 H126      -76.3529   29.9044  -74.2793 H         1 UNK         0.0793 
    127 H127      -79.8653   29.4836  -74.2414 H         1 UNK         0.2896 
@<TRIPOS>BOND
     1    1    2 1    
     2    1   67 1    
     3    1   68 1    
     4    1   69 1    
     5    2    3 2    
     6    2    4 am   BACKBONE|DICT|INTERRES
     7    4    5 1    
     8    4   70 1    
     9    5    6 1    
    10    5   65 1    
    11    5   71 1    
    12    6    7 1    
    13    6   72 1    
    14    6   73 1    
    15    7    8 1    
    16    8    9 1    
    17    8   74 1    
    18    8   75 1    
    19    9   10 ar   
    20    9   14 ar   
    21   10   11 ar   
    22   10   76 1    
    23   11   12 ar   
    24   11   48 1    
    25   12   13 ar   
    26   12   77 1    
    27   13   14 ar   
    28   13   15 1    
    29   14   78 1    
    30   15   16 1    
    31   15   79 1    
    32   15   80 1    
    33   16   17 1    
    34   17   18 1    
    35   17   81 1    
    36   17   82 1    
    37   18   19 1    
    38   18   22 1    
    39   18   83 1    
    40   19   20 am   BACKBONE|DICT|INTERRES
    41   19   21 2    
    42   20   84 1    
    43   20   85 1    
    44   22   23 am   BACKBONE|DICT|INTERRES
    45   22   86 1    
    46   23   24 2    
    47   23   25 1    
    48   25   26 1    
    49   25   27 1    
    50   25   87 1    
    51   26   88 1    
    52   26   89 1    
    53   26   90 1    
    54   27   28 am   BACKBONE|DICT|INTERRES
    55   27   91 1    
    56   28   29 2    
    57   28   30 1    
    58   30   31 1    
    59   30   32 1    
    60   30   92 1    
    61   31   93 1    
    62   31   94 1    
    63   31   95 1    
    64   32   33 am   BACKBONE|DICT|INTERRES
    65   32   96 1    
    66   33   34 2    
    67   33   35 1    
    68   35   36 1    
    69   35   37 1    
    70   35   97 1    
    71   36   98 1    
    72   36   99 1    
    73   36  100 1    
    74   37   38 am   BACKBONE|DICT|INTERRES
    75   37  101 1    
    76   38   39 2    
    77   38   40 1    
    78   40   41 1    
    79   40   42 1    
    80   40  102 1    
    81   41  103 1    
    82   41  104 1    
    83   41  105 1    
    84   42   43 am   BACKBONE|DICT|INTERRES
    85   42  106 1    
    86   43   44 2    
    87   43   45 1    
    88   45   46 1    
    89   45   49 1    
    90   45  107 1    
    91   46   47 1    
    92   46  108 1    
    93   46  109 1    
    94   47   48 1    
    95   48  110 1    
    96   48  111 1    
    97   49   50 am   BACKBONE|DICT|INTERRES
    98   49  112 1    
    99   50   51 2    
   100   50   52 1    
   101   52   53 1    
   102   52   54 1    
   103   52  113 1    
   104   53  114 1    
   105   53  115 1    
   106   53  116 1    
   107   54   55 am   BACKBONE|DICT|INTERRES
   108   54  117 1    
   109   55   56 2    
   110   55   57 1    
   111   57   58 1    
   112   57   59 1    
   113   57  118 1    
   114   58  119 1    
   115   58  120 1    
   116   58  121 1    
   117   59   60 am   BACKBONE|DICT|INTERRES
   118   59  122 1    
   119   60   61 2    
   120   60   62 1    
   121   62   63 1    
   122   62   64 1    
   123   62  123 1    
   124   63  124 1    
   125   63  125 1    
   126   63  126 1    
   127   64   65 am   BACKBONE|DICT|INTERRES
   128   64  127 1    
   129   65   66 2    
@<TRIPOS>SUBSTRUCTURE
     1 UNK         1 GROUP             0       ****    0 ROOT    
