@<TRIPOS>MOLECULE
3R135
127   129    1
SMALL
USER_CHARGES


@<TRIPOS>ATOM
      1 CA        -83.3779   25.9234  -75.7323 C.3       0 UNK        -0.1998 
      2 C         -82.0043   26.5255  -75.9824 C.2       0 UNK         0.4909 
      3 O         -81.5926   26.6410  -77.1367 O.2       0 UNK        -0.5240 
      4 N         -81.2928   26.9027  -74.9108 N.am      1 UNK        -0.4739 
      5 CA        -79.9642   27.5291  -74.9194 C.3       1 UNK         0.0864 
      6 C6        -79.4679   27.8376  -73.4871 C.3       11 UNK        -0.0881 
      7 S7        -80.6397   28.8087  -72.4782 S.3       11 UNK        -0.2682 
      8 C8        -79.5376   29.9992  -71.6325 C.3       11 UNK         0.0289 
      9 C9        -78.2706   29.3840  -71.0361 C.ar      11 UNK        -0.0687 
     10 C10       -78.2847   28.1305  -70.4136 C.ar      11 UNK        -0.0823 
     11 C11       -77.1044   27.5642  -69.9246 C.ar      11 UNK        -0.0830 
     12 C12       -75.9043   28.2741  -70.0343 C.ar      11 UNK        -0.1021 
     13 C13       -75.8730   29.5383  -70.6332 C.ar      11 UNK        -0.0753 
     14 C14       -77.0652   30.0869  -71.1219 C.ar      11 UNK        -0.0933 
     15 C15       -74.5498   30.2990  -70.7206 C.3       11 UNK         0.0166 
     16 S16       -74.3474   31.2407  -72.2713 S.3       11 UNK        -0.2615 
     17 C17       -72.6010   31.7691  -72.1650 C.3       11 UNK        -0.0865 
     18 CA        -71.6462   30.9876  -73.1135 C.3       10 UNK         0.0862 
     19 C         -71.3775   29.5290  -72.6566 C.2       10 UNK         0.5551 
     20 N         -70.7765   29.3445  -71.4893 N.am      10 UNK        -0.7319 
     21 O         -71.7050   28.5645  -73.3466 O.2       10 UNK        -0.5018 
     22 N         -72.0912   31.0167  -74.5091 N.am      10 UNK        -0.4509 
     23 C         -71.9652   32.0303  -75.3695 C.2       10 UNK         0.4899 
     24 O         -71.4547   33.1126  -75.0765 O.2       10 UNK        -0.4839 
     25 CA        -72.5221   31.8022  -76.7920 C.3       9 UNK         0.0222 
     26 CB        -71.7655   32.6132  -77.8658 C.3       9 UNK        -0.1966 
     27 N         -72.6215   30.3828  -77.1657 N.am      9 UNK        -0.4218 
     28 C         -71.6225   29.5013  -77.3197 C.2       9 UNK         0.5020 
     29 O         -70.4276   29.7849  -77.2173 O.2       9 UNK        -0.5274 
     30 CA        -72.0507   28.0441  -77.5807 C.3       8 UNK         0.0270 
     31 CB        -70.8665   27.1342  -77.9571 C.3       8 UNK        -0.1976 
     32 N         -72.7300   27.4766  -76.4133 N.am      8 UNK        -0.4313 
     33 C         -73.9863   27.7431  -76.0402 C.2       8 UNK         0.5041 
     34 O         -74.7406   28.4806  -76.6791 O.2       8 UNK        -0.5577 
     35 CA        -74.4790   27.0743  -74.7470 C.3       7 UNK         0.0284 
     36 CB        -75.5013   27.9538  -74.0087 C.3       7 UNK        -0.1958 
     37 N         -75.0908   25.7794  -75.0231 N.am      7 UNK        -0.4454 
     38 C         -74.4413   24.6646  -75.3867 C.2       7 UNK         0.5089 
     39 O         -73.2197   24.5937  -75.5297 O.2       7 UNK        -0.5125 
     40 CA        -75.3286   23.4243  -75.6042 C.3       6 UNK         0.0408 
     41 CB        -74.5389   22.0987  -75.6452 C.3       6 UNK        -0.1791 
     42 N         -76.4307   23.3859  -74.6344 N.am      6 UNK        -0.4762 
     43 C         -76.3359   23.2177  -73.3041 C.2       6 UNK         0.5007 
     44 O         -75.3030   22.8744  -72.7291 O.2       6 UNK        -0.5032 
     45 CA        -77.6086   23.5043  -72.4750 C.3       5 UNK         0.0783 
     46 C46       -77.5278   24.8798  -71.7595 C.3       11 UNK        -0.0857 
     47 S47       -76.3908   24.9047  -70.3317 S.3       11 UNK        -0.2512 
     48 C48       -77.1291   26.1890  -69.2699 C.3       11 UNK         0.0225 
     49 N         -78.8132   23.4397  -73.3098 N.am      5 UNK        -0.4615 
     50 C         -79.4407   22.3127  -73.6635 C.2       4 UNK         0.5053 
     51 O         -79.0885   21.1907  -73.3002 O.2       4 UNK        -0.5105 
     52 CA        -80.6655   22.4653  -74.5727 C.3       4 UNK         0.0263 
     53 CB        -81.7839   23.2517  -73.8661 C.3       4 UNK        -0.1981 
     54 N         -80.3276   23.1116  -75.8488 N.am      4 UNK        -0.4224 
     55 C         -80.5871   22.5744  -77.0524 C.2       3 UNK         0.4895 
     56 O         -81.0715   21.4516  -77.2021 O.2       3 UNK        -0.5091 
     57 CA        -80.2995   23.4084  -78.3169 C.3       3 UNK         0.0250 
     58 CB        -81.6104   23.7259  -79.0580 C.3       3 UNK        -0.1996 
     59 N         -79.6013   24.6667  -78.0464 N.am      3 UNK        -0.4254 
     60 C         -78.2745   24.8367  -78.1367 C.2       2 UNK         0.5004 
     61 O         -77.4962   23.9488  -78.4822 O.2       2 UNK        -0.5226 
     62 CA        -77.7050   26.2216  -77.7650 C.3       2 UNK         0.0269 
     63 CB        -77.3987   27.0378  -79.0301 C.3       2 UNK        -0.1926 
     64 N         -78.5706   27.0103  -76.8811 N.am      2 UNK        -0.4687 
     65 C         -78.9356   26.6406  -75.6477 C.2       1 UNK         0.5165 
     66 O         -78.5354   25.6058  -75.1064 O.2       1 UNK        -0.5079 
     67 H67       -83.6007   25.8410  -74.6687 H         1 UNK         0.0900 
     68 H68       -83.4362   24.9277  -76.1708 H         1 UNK         0.0900 
     69 H69       -84.1464   26.5431  -76.1932 H         1 UNK         0.0900 
     70 H70       -81.7006   26.8026  -73.9921 H         1 UNK         0.2959 
     71 H71       -80.0523   28.4746  -75.4586 H         1 UNK         0.1079 
     72 H72       -79.2729   26.9149  -72.9402 H         1 UNK         0.0837 
     73 H73       -78.5173   28.3701  -73.5383 H         1 UNK         0.0837 
     74 H74       -79.2745   30.7768  -72.3514 H         1 UNK         0.0685 
     75 H75       -80.0974   30.4916  -70.8365 H         1 UNK         0.0685 
     76 H76       -79.2144   27.5852  -70.3281 H         1 UNK         0.1434 
     77 H77       -74.9922   27.8361  -69.6520 H         1 UNK         0.1329 
     78 H78       -77.0547   31.0647  -71.5830 H         1 UNK         0.1335 
     79 H79       -74.4805   30.9842  -69.8749 H         1 UNK         0.0680 
     80 H80       -73.7159   29.6012  -70.6300 H         1 UNK         0.0680 
     81 H81       -72.2575   31.7171  -71.1307 H         1 UNK         0.1032 
     82 H82       -72.5662   32.8289  -72.4212 H         1 UNK         0.1032 
     83 H83       -70.6715   31.4785  -73.0851 H         1 UNK         0.0461 
     84 H84       -70.5932   28.4026  -71.1813 H         1 UNK         0.3453 
     85 H85       -70.4823   30.1221  -70.9199 H         1 UNK         0.3453 
     86 H86       -72.4804   30.1420  -74.8322 H         1 UNK         0.2984 
     87 H87       -73.5481   32.1720  -76.7688 H         1 UNK         0.0554 
     88 H88       -72.1811   32.4433  -78.8589 H         1 UNK         0.0847 
     89 H89       -70.7059   32.3576  -77.8963 H         1 UNK         0.0847 
     90 H90       -71.8331   33.6836  -77.6676 H         1 UNK         0.0847 
     91 H91       -73.5639   29.9993  -77.2021 H         1 UNK         0.3141 
     92 H92       -72.7453   28.0509  -78.4238 H         1 UNK         0.0743 
     93 H93       -70.1366   27.0638  -77.1494 H         1 UNK         0.0784 
     94 H94       -71.2027   26.1243  -78.1932 H         1 UNK         0.0784 
     95 H95       -70.3454   27.5154  -78.8364 H         1 UNK         0.0784 
     96 H96       -72.1893   26.8439  -75.8380 H         1 UNK         0.3213 
     97 H97       -73.6259   26.9192  -74.0836 H         1 UNK         0.0855 
     98 H98       -75.0826   28.9383  -73.8064 H         1 UNK         0.0814 
     99 H99       -75.7854   27.5227  -73.0488 H         1 UNK         0.0814 
    100 H100      -76.4054   28.1048  -74.5978 H         1 UNK         0.0814 
    101 H101      -76.0960   25.7310  -74.9350 H         1 UNK         0.3105 
    102 H102      -75.7882   23.5518  -76.5827 H         1 UNK         0.0547 
    103 H103      -73.8427   22.0906  -76.4846 H         1 UNK         0.0837 
    104 H104      -73.9504   21.9422  -74.7412 H         1 UNK         0.0837 
    105 H105      -75.2037   21.2440  -75.7676 H         1 UNK         0.0837 
    106 H106      -77.3316   23.6802  -74.9884 H         1 UNK         0.3020 
    107 H107      -77.6788   22.7237  -71.7135 H         1 UNK         0.1245 
    108 H108      -78.5176   25.1502  -71.3883 H         1 UNK         0.0781 
    109 H109      -77.2401   25.6703  -72.4544 H         1 UNK         0.0781 
    110 H110      -76.5751   26.2294  -68.3309 H         1 UNK         0.0836 
    111 H111      -78.1477   25.8991  -69.0070 H         1 UNK         0.0836 
    112 H112      -79.1149   24.3213  -73.7071 H         1 UNK         0.3022 
    113 H113      -81.0436   21.4553  -74.7447 H         1 UNK         0.0747 
    114 H114      -82.6993   23.2457  -74.4572 H         1 UNK         0.0793 
    115 H115      -82.0245   22.8054  -72.9001 H         1 UNK         0.0793 
    116 H116      -81.5059   24.2895  -73.6845 H         1 UNK         0.0793 
    117 H117      -79.8727   24.0143  -75.8070 H         1 UNK         0.3047 
    118 H118      -79.6906   22.7851  -78.9754 H         1 UNK         0.0822 
    119 H119      -81.4212   24.2803  -79.9774 H         1 UNK         0.0807 
    120 H120      -82.2900   24.3179  -78.4445 H         1 UNK         0.0807 
    121 H121      -82.1364   22.8117  -79.3365 H         1 UNK         0.0807 
    122 H122      -80.1815   25.4564  -77.7724 H         1 UNK         0.2946 
    123 H123      -76.7626   26.0501  -77.2432 H         1 UNK         0.1144 
    124 H124      -76.7392   26.4859  -79.7015 H         1 UNK         0.0793 
    125 H125      -76.8948   27.9730  -78.7835 H         1 UNK         0.0793 
    126 H126      -78.3058   27.2774  -79.5862 H         1 UNK         0.0793 
    127 H127      -78.9771   27.8450  -77.2796 H         1 UNK         0.2896 
@<TRIPOS>BOND
     1    1    2 1    
     2    1   67 1    
     3    1   68 1    
     4    1   69 1    
     5    2    3 2    
     6    2    4 am   BACKBONE|DICT|INTERRES
     7    4    5 1    
     8    4   70 1    
     9    5    6 1    
    10    5   65 1    
    11    5   71 1    
    12    6    7 1    
    13    6   72 1    
    14    6   73 1    
    15    7    8 1    
    16    8    9 1    
    17    8   74 1    
    18    8   75 1    
    19    9   10 ar   
    20    9   14 ar   
    21   10   11 ar   
    22   10   76 1    
    23   11   12 ar   
    24   11   48 1    
    25   12   13 ar   
    26   12   77 1    
    27   13   14 ar   
    28   13   15 1    
    29   14   78 1    
    30   15   16 1    
    31   15   79 1    
    32   15   80 1    
    33   16   17 1    
    34   17   18 1    
    35   17   81 1    
    36   17   82 1    
    37   18   19 1    
    38   18   22 1    
    39   18   83 1    
    40   19   20 am   BACKBONE|DICT|INTERRES
    41   19   21 2    
    42   20   84 1    
    43   20   85 1    
    44   22   23 am   BACKBONE|DICT|INTERRES
    45   22   86 1    
    46   23   24 2    
    47   23   25 1    
    48   25   26 1    
    49   25   27 1    
    50   25   87 1    
    51   26   88 1    
    52   26   89 1    
    53   26   90 1    
    54   27   28 am   BACKBONE|DICT|INTERRES
    55   27   91 1    
    56   28   29 2    
    57   28   30 1    
    58   30   31 1    
    59   30   32 1    
    60   30   92 1    
    61   31   93 1    
    62   31   94 1    
    63   31   95 1    
    64   32   33 am   BACKBONE|DICT|INTERRES
    65   32   96 1    
    66   33   34 2    
    67   33   35 1    
    68   35   36 1    
    69   35   37 1    
    70   35   97 1    
    71   36   98 1    
    72   36   99 1    
    73   36  100 1    
    74   37   38 am   BACKBONE|DICT|INTERRES
    75   37  101 1    
    76   38   39 2    
    77   38   40 1    
    78   40   41 1    
    79   40   42 1    
    80   40  102 1    
    81   41  103 1    
    82   41  104 1    
    83   41  105 1    
    84   42   43 am   BACKBONE|DICT|INTERRES
    85   42  106 1    
    86   43   44 2    
    87   43   45 1    
    88   45   46 1    
    89   45   49 1    
    90   45  107 1    
    91   46   47 1    
    92   46  108 1    
    93   46  109 1    
    94   47   48 1    
    95   48  110 1    
    96   48  111 1    
    97   49   50 am   BACKBONE|DICT|INTERRES
    98   49  112 1    
    99   50   51 2    
   100   50   52 1    
   101   52   53 1    
   102   52   54 1    
   103   52  113 1    
   104   53  114 1    
   105   53  115 1    
   106   53  116 1    
   107   54   55 am   BACKBONE|DICT|INTERRES
   108   54  117 1    
   109   55   56 2    
   110   55   57 1    
   111   57   58 1    
   112   57   59 1    
   113   57  118 1    
   114   58  119 1    
   115   58  120 1    
   116   58  121 1    
   117   59   60 am   BACKBONE|DICT|INTERRES
   118   59  122 1    
   119   60   61 2    
   120   60   62 1    
   121   62   63 1    
   122   62   64 1    
   123   62  123 1    
   124   63  124 1    
   125   63  125 1    
   126   63  126 1    
   127   64   65 am   BACKBONE|DICT|INTERRES
   128   64  127 1    
   129   65   66 2    
@<TRIPOS>SUBSTRUCTURE
     1 UNK         1 GROUP             0       ****    0 ROOT    
