@<TRIPOS>MOLECULE
3R135
127   129    1
SMALL
USER_CHARGES


@<TRIPOS>ATOM
      1 CA        -76.7855   27.6391  -75.2175 C.3       0 UNK        -0.1998 
      2 C         -77.1814   29.0967  -75.4260 C.2       0 UNK         0.4909 
      3 O         -76.5594   29.7718  -76.2412 O.2       0 UNK        -0.5240 
      4 N         -78.1832   29.6362  -74.7178 N.am      1 UNK        -0.4739 
      5 CA        -79.1304   28.9327  -73.8466 C.3       1 UNK         0.0864 
      6 C6        -79.9030   29.9459  -72.9642 C.3       11 UNK        -0.0881 
      7 S7        -80.8871   29.1675  -71.6367 S.3       11 UNK        -0.2682 
      8 C8        -79.7709   29.2989  -70.2038 C.3       11 UNK         0.0289 
      9 C9        -78.5643   28.3827  -70.3431 C.ar      11 UNK        -0.0687 
     10 C10       -78.7210   26.9980  -70.2275 C.ar      11 UNK        -0.0823 
     11 C11       -77.6228   26.1446  -70.3660 C.ar      11 UNK        -0.0830 
     12 C12       -76.3586   26.6875  -70.6142 C.ar      11 UNK        -0.1021 
     13 C13       -76.1870   28.0713  -70.7182 C.ar      11 UNK        -0.0753 
     14 C14       -77.2934   28.9150  -70.5824 C.ar      11 UNK        -0.0933 
     15 C15       -74.8015   28.6482  -70.9641 C.3       11 UNK         0.0166 
     16 S16       -74.5668   29.0704  -72.7157 S.3       11 UNK        -0.2615 
     17 C17       -75.0750   30.8243  -72.7682 C.3       11 UNK        -0.0865 
     18 CA        -74.1274   31.7046  -73.6258 C.3       10 UNK         0.0862 
     19 C         -72.7490   31.9577  -72.9435 C.2       10 UNK         0.5551 
     20 N         -71.6183   31.6787  -73.5819 N.am      10 UNK        -0.7319 
     21 O         -72.7067   32.4411  -71.8146 O.2       10 UNK        -0.5018 
     22 N         -74.0531   31.2130  -75.0087 N.am      10 UNK        -0.4509 
     23 C         -73.7842   31.9627  -76.0816 C.2       10 UNK         0.4899 
     24 O         -73.6185   33.1834  -76.0376 O.2       10 UNK        -0.4839 
     25 CA        -73.6818   31.2140  -77.4271 C.3       9 UNK         0.0222 
     26 CB        -73.0863   32.0930  -78.5486 C.3       9 UNK        -0.1966 
     27 N         -72.9599   29.9330  -77.3515 N.am      9 UNK        -0.4218 
     28 C         -71.7030   29.7431  -76.9218 C.2       9 UNK         0.5020 
     29 O         -71.0185   30.6177  -76.3855 O.2       9 UNK        -0.5274 
     30 CA        -71.1124   28.3412  -77.1712 C.3       8 UNK         0.0270 
     31 CB        -69.5995   28.2702  -76.8685 C.3       8 UNK        -0.1976 
     32 N         -71.8234   27.2639  -76.4718 N.am      8 UNK        -0.4313 
     33 C         -71.9977   27.1160  -75.1517 C.2       8 UNK         0.5041 
     34 O         -71.6605   27.9550  -74.3167 O.2       8 UNK        -0.5577 
     35 CA        -72.6129   25.7761  -74.6928 C.3       7 UNK         0.0284 
     36 CB        -72.7766   25.6744  -73.1642 C.3       7 UNK        -0.1958 
     37 N         -73.8983   25.4595  -75.3218 N.am      7 UNK        -0.4454 
     38 C         -74.0754   24.9949  -76.5659 C.2       7 UNK         0.5089 
     39 O         -73.1635   24.9304  -77.3928 O.2       7 UNK        -0.5125 
     40 CA        -75.4998   24.5286  -76.9507 C.3       6 UNK         0.0408 
     41 CB        -75.4759   23.4355  -78.0379 C.3       6 UNK        -0.1791 
     42 N         -76.3386   24.0952  -75.8205 N.am      6 UNK        -0.4762 
     43 C         -76.0542   23.1542  -74.9021 C.2       6 UNK         0.5007 
     44 O         -75.0082   22.5060  -74.8700 O.2       6 UNK        -0.5032 
     45 CA        -77.1348   22.9021  -73.8396 C.3       5 UNK         0.0783 
     46 C46       -77.3781   24.1728  -72.9844 C.3       11 UNK        -0.0857 
     47 S47       -78.6256   23.9150  -71.6810 S.3       11 UNK        -0.2512 
     48 C48       -77.8018   24.6386  -70.2279 C.3       11 UNK         0.0225 
     49 N         -78.3443   22.4204  -74.5065 N.am      5 UNK        -0.4615 
     50 C         -78.5872   21.1367  -74.8061 C.2       4 UNK         0.5053 
     51 O         -77.8408   20.2094  -74.4916 O.2       4 UNK        -0.5105 
     52 CA        -79.8833   20.8181  -75.5762 C.3       4 UNK         0.0263 
     53 CB        -80.9793   20.3516  -74.6041 C.3       4 UNK        -0.1981 
     54 N         -80.3853   21.9540  -76.3504 N.am      4 UNK        -0.4224 
     55 C         -79.8222   22.4283  -77.4712 C.2       3 UNK         0.4895 
     56 O         -78.8873   21.8796  -78.0537 O.2       3 UNK        -0.5091 
     57 CA        -80.3783   23.7577  -78.0182 C.3       3 UNK         0.0250 
     58 CB        -81.3843   23.4958  -79.1505 C.3       3 UNK        -0.1996 
     59 N         -81.0081   24.6003  -76.9919 N.am      3 UNK        -0.4254 
     60 C         -80.3599   25.1334  -75.9475 C.2       2 UNK         0.5004 
     61 O         -79.1519   24.9805  -75.7442 O.2       2 UNK        -0.5226 
     62 CA        -81.2187   25.8801  -74.9155 C.3       2 UNK         0.0269 
     63 CB        -81.8138   24.8874  -73.9034 C.3       2 UNK        -0.1926 
     64 N         -80.4242   26.8726  -74.1919 N.am      2 UNK        -0.4687 
     65 C         -80.0775   28.0610  -74.6996 C.2       1 UNK         0.5165 
     66 O         -80.4762   28.4780  -75.7907 O.2       1 UNK        -0.5079 
     67 H67       -76.7586   27.3678  -74.1632 H         1 UNK         0.0900 
     68 H68       -75.7880   27.4749  -75.6207 H         1 UNK         0.0900 
     69 H69       -77.4735   26.9801  -75.7435 H         1 UNK         0.0900 
     70 H70       -78.4192   30.5993  -74.9068 H         1 UNK         0.2959 
     71 H71       -78.5605   28.2804  -73.1837 H         1 UNK         0.1079 
     72 H72       -79.2039   30.6474  -72.5060 H         1 UNK         0.0837 
     73 H73       -80.5721   30.5551  -73.5753 H         1 UNK         0.0837 
     74 H74       -79.4643   30.3378  -70.0721 H         1 UNK         0.0685 
     75 H75       -80.3227   29.0277  -69.3027 H         1 UNK         0.0685 
     76 H76       -79.7020   26.5832  -70.0384 H         1 UNK         0.1434 
     77 H77       -75.5036   26.0335  -70.7181 H         1 UNK         0.1329 
     78 H78       -77.1638   29.9850  -70.6663 H         1 UNK         0.1335 
     79 H79       -74.6309   29.5177  -70.3281 H         1 UNK         0.0680 
     80 H80       -74.0385   27.9207  -70.6832 H         1 UNK         0.0680 
     81 H81       -75.1538   31.2297  -71.7584 H         1 UNK         0.1032 
     82 H82       -76.0852   30.8710  -73.1751 H         1 UNK         0.1032 
     83 H83       -74.5952   32.6901  -73.6688 H         1 UNK         0.0461 
     84 H84       -71.6289   31.2806  -74.5144 H         1 UNK         0.3453 
     85 H85       -70.7387   31.8532  -73.1241 H         1 UNK         0.3453 
     86 H86       -74.1685   30.2166  -75.1260 H         1 UNK         0.2984 
     87 H87       -74.7045   30.9718  -77.7173 H         1 UNK         0.0554 
     88 H88       -73.6833   32.9931  -78.7008 H         1 UNK         0.0847 
     89 H89       -73.0598   31.5613  -79.4996 H         1 UNK         0.0847 
     90 H90       -72.0702   32.4125  -78.3141 H         1 UNK         0.0847 
     91 H91       -73.4511   29.1366  -77.7333 H         1 UNK         0.3141 
     92 H92       -71.2344   28.1444  -78.2376 H         1 UNK         0.0743 
     93 H93       -69.1892   27.2928  -77.1222 H         1 UNK         0.0784 
     94 H94       -69.3868   28.4601  -75.8158 H         1 UNK         0.0784 
     95 H95       -69.0502   29.0124  -77.4491 H         1 UNK         0.0784 
     96 H96       -72.1676   26.5019  -77.0535 H         1 UNK         0.3213 
     97 H97       -71.8991   25.0027  -74.9858 H         1 UNK         0.0855 
     98 H98       -73.5165   26.3794  -72.7887 H         1 UNK         0.0814 
     99 H99       -71.8365   25.8835  -72.6519 H         1 UNK         0.0814 
    100 H100      -73.0879   24.6731  -72.8658 H         1 UNK         0.0814 
    101 H101      -74.7075   25.4999  -74.7222 H         1 UNK         0.3105 
    102 H102      -75.9955   25.4023  -77.3758 H         1 UNK         0.0547 
    103 H103      -74.9660   23.7821  -78.9375 H         1 UNK         0.0837 
    104 H104      -74.9597   22.5382  -77.6954 H         1 UNK         0.0837 
    105 H105      -76.4849   23.1490  -78.3330 H         1 UNK         0.0837 
    106 H106      -77.2612   24.5235  -75.7757 H         1 UNK         0.3020 
    107 H107      -76.7613   22.1218  -73.1718 H         1 UNK         0.1245 
    108 H108      -76.4403   24.4881  -72.5243 H         1 UNK         0.0781 
    109 H109      -77.7112   25.0139  -73.5927 H         1 UNK         0.0781 
    110 H110      -76.8431   24.1425  -70.0682 H         1 UNK         0.0836 
    111 H111      -78.4025   24.4278  -69.3419 H         1 UNK         0.0836 
    112 H112      -78.9693   23.1384  -74.8499 H         1 UNK         0.3022 
    113 H113      -79.6648   20.0007  -76.2670 H         1 UNK         0.0747 
    114 H114      -81.8852   20.0604  -75.1361 H         1 UNK         0.0793 
    115 H115      -80.6488   19.4835  -74.0319 H         1 UNK         0.0793 
    116 H116      -81.2438   21.1313  -73.8883 H         1 UNK         0.0793 
    117 H117      -81.1702   22.4561  -75.9634 H         1 UNK         0.3047 
    118 H118      -79.5334   24.3137  -78.4309 H         1 UNK         0.0822 
    119 H119      -81.7192   24.4270  -79.6080 H         1 UNK         0.0807 
    120 H120      -82.2647   22.9593  -78.7942 H         1 UNK         0.0807 
    121 H121      -80.9338   22.8934  -79.9408 H         1 UNK         0.0807 
    122 H122      -82.0013   24.7602  -77.0872 H         1 UNK         0.2946 
    123 H123      -82.0346   26.3892  -75.4344 H         1 UNK         0.1144 
    124 H124      -82.4044   25.4016  -73.1448 H         1 UNK         0.0793 
    125 H125      -81.0393   24.3156  -73.3918 H         1 UNK         0.0793 
    126 H126      -82.4755   24.1727  -74.3942 H         1 UNK         0.0793 
    127 H127      -80.0578   26.5898  -73.2943 H         1 UNK         0.2896 
@<TRIPOS>BOND
     1    1    2 1    
     2    1   67 1    
     3    1   68 1    
     4    1   69 1    
     5    2    3 2    
     6    2    4 am   BACKBONE|DICT|INTERRES
     7    4    5 1    
     8    4   70 1    
     9    5    6 1    
    10    5   65 1    
    11    5   71 1    
    12    6    7 1    
    13    6   72 1    
    14    6   73 1    
    15    7    8 1    
    16    8    9 1    
    17    8   74 1    
    18    8   75 1    
    19    9   10 ar   
    20    9   14 ar   
    21   10   11 ar   
    22   10   76 1    
    23   11   12 ar   
    24   11   48 1    
    25   12   13 ar   
    26   12   77 1    
    27   13   14 ar   
    28   13   15 1    
    29   14   78 1    
    30   15   16 1    
    31   15   79 1    
    32   15   80 1    
    33   16   17 1    
    34   17   18 1    
    35   17   81 1    
    36   17   82 1    
    37   18   19 1    
    38   18   22 1    
    39   18   83 1    
    40   19   20 am   BACKBONE|DICT|INTERRES
    41   19   21 2    
    42   20   84 1    
    43   20   85 1    
    44   22   23 am   BACKBONE|DICT|INTERRES
    45   22   86 1    
    46   23   24 2    
    47   23   25 1    
    48   25   26 1    
    49   25   27 1    
    50   25   87 1    
    51   26   88 1    
    52   26   89 1    
    53   26   90 1    
    54   27   28 am   BACKBONE|DICT|INTERRES
    55   27   91 1    
    56   28   29 2    
    57   28   30 1    
    58   30   31 1    
    59   30   32 1    
    60   30   92 1    
    61   31   93 1    
    62   31   94 1    
    63   31   95 1    
    64   32   33 am   BACKBONE|DICT|INTERRES
    65   32   96 1    
    66   33   34 2    
    67   33   35 1    
    68   35   36 1    
    69   35   37 1    
    70   35   97 1    
    71   36   98 1    
    72   36   99 1    
    73   36  100 1    
    74   37   38 am   BACKBONE|DICT|INTERRES
    75   37  101 1    
    76   38   39 2    
    77   38   40 1    
    78   40   41 1    
    79   40   42 1    
    80   40  102 1    
    81   41  103 1    
    82   41  104 1    
    83   41  105 1    
    84   42   43 am   BACKBONE|DICT|INTERRES
    85   42  106 1    
    86   43   44 2    
    87   43   45 1    
    88   45   46 1    
    89   45   49 1    
    90   45  107 1    
    91   46   47 1    
    92   46  108 1    
    93   46  109 1    
    94   47   48 1    
    95   48  110 1    
    96   48  111 1    
    97   49   50 am   BACKBONE|DICT|INTERRES
    98   49  112 1    
    99   50   51 2    
   100   50   52 1    
   101   52   53 1    
   102   52   54 1    
   103   52  113 1    
   104   53  114 1    
   105   53  115 1    
   106   53  116 1    
   107   54   55 am   BACKBONE|DICT|INTERRES
   108   54  117 1    
   109   55   56 2    
   110   55   57 1    
   111   57   58 1    
   112   57   59 1    
   113   57  118 1    
   114   58  119 1    
   115   58  120 1    
   116   58  121 1    
   117   59   60 am   BACKBONE|DICT|INTERRES
   118   59  122 1    
   119   60   61 2    
   120   60   62 1    
   121   62   63 1    
   122   62   64 1    
   123   62  123 1    
   124   63  124 1    
   125   63  125 1    
   126   63  126 1    
   127   64   65 am   BACKBONE|DICT|INTERRES
   128   64  127 1    
   129   65   66 2    
@<TRIPOS>SUBSTRUCTURE
     1 UNK         1 GROUP             0       ****    0 ROOT    
