@<TRIPOS>MOLECULE
3R135
127   129    1
SMALL
USER_CHARGES


@<TRIPOS>ATOM
      1 CA        -83.7235   24.2483  -74.3305 C.3       0 UNK        -0.1998 
      2 C         -82.8422   25.4103  -73.8997 C.2       0 UNK         0.4909 
      3 O         -81.6367   25.2226  -73.7278 O.2       0 UNK        -0.5240 
      4 N         -83.4340   26.6048  -73.7348 N.am      1 UNK        -0.4739 
      5 CA        -82.7796   27.8563  -73.3250 C.3       1 UNK         0.0864 
      6 C6        -82.3598   27.8146  -71.8302 C.3       11 UNK        -0.0881 
      7 S7        -81.9483   29.4589  -71.1518 S.3       11 UNK        -0.2682 
      8 C8        -80.7082   29.0417  -69.8845 C.3       11 UNK         0.0289 
      9 C9        -79.3667   28.6671  -70.4982 C.ar      11 UNK        -0.0687 
     10 C10       -79.0234   27.3242  -70.6805 C.ar      11 UNK        -0.0823 
     11 C11       -77.7997   26.9647  -71.2529 C.ar      11 UNK        -0.0830 
     12 C12       -76.8995   27.9778  -71.6072 C.ar      11 UNK        -0.1021 
     13 C13       -77.2348   29.3244  -71.4472 C.ar      11 UNK        -0.0753 
     14 C14       -78.4689   29.6650  -70.8875 C.ar      11 UNK        -0.0933 
     15 C15       -76.2776   30.4011  -71.9332 C.3       11 UNK         0.0166 
     16 S16       -74.7575   30.4511  -70.9376 S.3       11 UNK        -0.2615 
     17 C17       -73.7517   31.6170  -71.9214 C.3       11 UNK        -0.0865 
     18 CA        -72.5876   30.9445  -72.7042 C.3       10 UNK         0.0862 
     19 C         -71.4268   30.4396  -71.7985 C.2       10 UNK         0.5551 
     20 N         -70.7983   29.3077  -72.0956 N.am      10 UNK        -0.7319 
     21 O         -71.0678   31.0957  -70.8237 O.2       10 UNK        -0.5018 
     22 N         -73.0533   29.9486  -73.6849 N.am      10 UNK        -0.4509 
     23 C         -73.5392   30.2357  -74.8978 C.2       10 UNK         0.4899 
     24 O         -73.7084   31.3845  -75.3110 O.2       10 UNK        -0.4839 
     25 CA        -73.8794   29.0295  -75.7993 C.3       9 UNK         0.0222 
     26 CB        -74.3070   29.4438  -77.2224 C.3       9 UNK        -0.1966 
     27 N         -72.8073   28.0256  -75.8661 N.am      9 UNK        -0.4218 
     28 C         -71.5184   28.2137  -76.1976 C.2       9 UNK         0.5020 
     29 O         -71.0309   29.3050  -76.4931 O.2       9 UNK        -0.5274 
     30 CA        -70.6115   26.9733  -76.2014 C.3       8 UNK         0.0270 
     31 CB        -70.2330   26.5684  -74.7664 C.3       8 UNK        -0.1976 
     32 N         -71.2495   25.8400  -76.8749 N.am      8 UNK        -0.4313 
     33 C         -70.7363   25.1684  -77.9151 C.2       8 UNK         0.5041 
     34 O         -69.6384   25.4156  -78.4171 O.2       8 UNK        -0.5577 
     35 CA        -71.5755   24.0139  -78.5022 C.3       7 UNK         0.0284 
     36 CB        -71.0813   22.6633  -77.9586 C.3       7 UNK        -0.1958 
     37 N         -73.0129   24.1363  -78.2440 N.am      7 UNK        -0.4454 
     38 C         -73.8006   25.0932  -78.7518 C.2       7 UNK         0.5089 
     39 O         -73.4203   25.9156  -79.5856 O.2       7 UNK        -0.5125 
     40 CA        -75.2503   25.1722  -78.2344 C.3       6 UNK         0.0408 
     41 CB        -76.2088   24.5677  -79.2725 C.3       6 UNK        -0.1791 
     42 N         -75.5272   24.5839  -76.9117 N.am      6 UNK        -0.4762 
     43 C         -74.8760   24.8457  -75.7643 C.2       6 UNK         0.5007 
     44 O         -73.8102   25.4626  -75.7242 O.2       6 UNK        -0.5032 
     45 CA        -75.5093   24.3835  -74.4337 C.3       5 UNK         0.0783 
     46 C46       -75.3596   25.4966  -73.3642 C.3       11 UNK        -0.0857 
     47 S47       -75.7942   24.9662  -71.6730 S.3       11 UNK        -0.2512 
     48 C48       -77.5402   25.4808  -71.5224 C.3       11 UNK         0.0225 
     49 N         -76.9199   24.0462  -74.6312 N.am      5 UNK        -0.4615 
     50 C         -77.4876   22.8525  -74.4232 C.2       4 UNK         0.5053 
     51 O         -76.8621   21.8544  -74.0655 O.2       4 UNK        -0.5105 
     52 CA        -79.0120   22.7429  -74.6447 C.3       4 UNK         0.0263 
     53 CB        -79.7471   22.5569  -73.3068 C.3       4 UNK        -0.1981 
     54 N         -79.5939   23.8871  -75.3574 N.am      4 UNK        -0.4224 
     55 C         -79.3782   24.1482  -76.6549 C.2       3 UNK         0.4895 
     56 O         -78.7235   23.4112  -77.3919 O.2       3 UNK        -0.5091 
     57 CA        -79.9333   25.4664  -77.2219 C.3       3 UNK         0.0250 
     58 CB        -81.3503   25.2593  -77.7787 C.3       3 UNK        -0.1996 
     59 N         -79.9463   26.5823  -76.2719 N.am      3 UNK        -0.4254 
     60 C         -78.8945   27.0898  -75.6155 C.2       2 UNK         0.5004 
     61 O         -77.7552   26.6377  -75.7115 O.2       2 UNK        -0.5226 
     62 CA        -79.1439   28.2772  -74.6652 C.3       2 UNK         0.0269 
     63 CB        -79.0146   29.6234  -75.4013 C.3       2 UNK        -0.1926 
     64 N         -80.3924   28.1905  -73.8913 N.am      2 UNK        -0.4687 
     65 C         -81.6603   28.2172  -74.3293 C.2       1 UNK         0.5165 
     66 O         -81.9711   28.4330  -75.5027 O.2       1 UNK        -0.5079 
     67 H67       -83.3066   23.7666  -75.2143 H         1 UNK         0.0900 
     68 H68       -83.7764   23.5068  -73.5339 H         1 UNK         0.0900 
     69 H69       -84.7379   24.5700  -74.5655 H         1 UNK         0.0900 
     70 H70       -84.4220   26.6880  -73.9312 H         1 UNK         0.2959 
     71 H71       -83.5344   28.6372  -73.4331 H         1 UNK         0.1079 
     72 H72       -81.5487   27.1053  -71.6756 H         1 UNK         0.0837 
     73 H73       -83.1895   27.4314  -71.2340 H         1 UNK         0.0837 
     74 H74       -80.5776   29.9019  -69.2262 H         1 UNK         0.0685 
     75 H75       -81.0860   28.2340  -69.2555 H         1 UNK         0.0685 
     76 H76       -79.7208   26.5509  -70.3878 H         1 UNK         0.1434 
     77 H77       -75.9345   27.7444  -72.0272 H         1 UNK         0.1329 
     78 H78       -78.7380   30.7052  -70.7639 H         1 UNK         0.1335 
     79 H79       -76.7531   31.3829  -71.9104 H         1 UNK         0.0680 
     80 H80       -76.0241   30.2027  -72.9757 H         1 UNK         0.0680 
     81 H81       -74.3951   32.1554  -72.6188 H         1 UNK         0.1032 
     82 H82       -73.3638   32.3843  -71.2491 H         1 UNK         0.1032 
     83 H83       -72.1089   31.7404  -73.2780 H         1 UNK         0.0461 
     84 H84       -70.0450   29.0013  -71.4998 H         1 UNK         0.3453 
     85 H85       -71.0202   28.7910  -72.9281 H         1 UNK         0.3453 
     86 H86       -72.9752   28.9841  -73.3993 H         1 UNK         0.2984 
     87 H87       -74.7329   28.5327  -75.3345 H         1 UNK         0.0554 
     88 H88       -75.1728   30.1064  -77.1945 H         1 UNK         0.0847 
     89 H89       -74.5832   28.5763  -77.8214 H         1 UNK         0.0847 
     90 H90       -73.5081   29.9707  -77.7454 H         1 UNK         0.0847 
     91 H91       -73.1110   27.0737  -75.6670 H         1 UNK         0.3141 
     92 H92       -69.6937   27.2526  -76.7233 H         1 UNK         0.0743 
     93 H93       -69.7360   27.3887  -74.2473 H         1 UNK         0.0784 
     94 H94       -71.1064   26.2823  -74.1788 H         1 UNK         0.0784 
     95 H95       -69.5427   25.7245  -74.7668 H         1 UNK         0.0784 
     96 H96       -72.1741   25.5750  -76.5423 H         1 UNK         0.3213 
     97 H97       -71.4275   24.0227  -79.5844 H         1 UNK         0.0855 
     98 H98       -71.2173   22.5880  -76.8790 H         1 UNK         0.0814 
     99 H99       -70.0182   22.5266  -78.1628 H         1 UNK         0.0814 
    100 H100      -71.6077   21.8300  -78.4244 H         1 UNK         0.0814 
    101 H101      -73.4150   23.5063  -77.5652 H         1 UNK         0.3105 
    102 H102      -75.4844   26.2350  -78.1485 H         1 UNK         0.0547 
    103 H103      -77.2427   24.8314  -79.0565 H         1 UNK         0.0837 
    104 H104      -75.9939   24.9393  -80.2757 H         1 UNK         0.0837 
    105 H105      -76.1364   23.4801  -79.3045 H         1 UNK         0.0837 
    106 H106      -76.3885   24.0579  -76.8421 H         1 UNK         0.3020 
    107 H107      -74.9446   23.5061  -74.1113 H         1 UNK         0.1245 
    108 H108      -75.9579   26.3584  -73.6599 H         1 UNK         0.0781 
    109 H109      -74.3289   25.8508  -73.3027 H         1 UNK         0.0781 
    110 H110      -77.9794   24.8895  -70.7174 H         1 UNK         0.0836 
    111 H111      -78.0758   25.2031  -72.4291 H         1 UNK         0.0836 
    112 H112      -77.4911   24.8166  -74.9658 H         1 UNK         0.3022 
    113 H113      -79.1815   21.8482  -75.2474 H         1 UNK         0.0747 
    114 H114      -80.8098   22.3714  -73.4639 H         1 UNK         0.0793 
    115 H115      -79.3487   21.7056  -72.7531 H         1 UNK         0.0793 
    116 H116      -79.6562   23.4350  -72.6677 H         1 UNK         0.0793 
    117 H117      -80.1821   24.5159  -74.8144 H         1 UNK         0.3047 
    118 H118      -79.2831   25.7610  -78.0476 H         1 UNK         0.0822 
    119 H119      -81.3708   24.4458  -78.5054 H         1 UNK         0.0807 
    120 H120      -81.7117   26.1543  -78.2857 H         1 UNK         0.0807 
    121 H121      -82.0609   25.0119  -76.9900 H         1 UNK         0.0807 
    122 H122      -80.8358   27.0511  -76.1277 H         1 UNK         0.2946 
    123 H123      -78.3418   28.2394  -73.9293 H         1 UNK         0.1144 
    124 H124      -79.1127   30.4611  -74.7107 H         1 UNK         0.0793 
    125 H125      -79.7670   29.7396  -76.1816 H         1 UNK         0.0793 
    126 H126      -78.0376   29.7102  -75.8791 H         1 UNK         0.0793 
    127 H127      -80.2596   28.0016  -72.9068 H         1 UNK         0.2896 
@<TRIPOS>BOND
     1    1    2 1    
     2    1   67 1    
     3    1   68 1    
     4    1   69 1    
     5    2    3 2    
     6    2    4 am   BACKBONE|DICT|INTERRES
     7    4    5 1    
     8    4   70 1    
     9    5    6 1    
    10    5   65 1    
    11    5   71 1    
    12    6    7 1    
    13    6   72 1    
    14    6   73 1    
    15    7    8 1    
    16    8    9 1    
    17    8   74 1    
    18    8   75 1    
    19    9   10 ar   
    20    9   14 ar   
    21   10   11 ar   
    22   10   76 1    
    23   11   12 ar   
    24   11   48 1    
    25   12   13 ar   
    26   12   77 1    
    27   13   14 ar   
    28   13   15 1    
    29   14   78 1    
    30   15   16 1    
    31   15   79 1    
    32   15   80 1    
    33   16   17 1    
    34   17   18 1    
    35   17   81 1    
    36   17   82 1    
    37   18   19 1    
    38   18   22 1    
    39   18   83 1    
    40   19   20 am   BACKBONE|DICT|INTERRES
    41   19   21 2    
    42   20   84 1    
    43   20   85 1    
    44   22   23 am   BACKBONE|DICT|INTERRES
    45   22   86 1    
    46   23   24 2    
    47   23   25 1    
    48   25   26 1    
    49   25   27 1    
    50   25   87 1    
    51   26   88 1    
    52   26   89 1    
    53   26   90 1    
    54   27   28 am   BACKBONE|DICT|INTERRES
    55   27   91 1    
    56   28   29 2    
    57   28   30 1    
    58   30   31 1    
    59   30   32 1    
    60   30   92 1    
    61   31   93 1    
    62   31   94 1    
    63   31   95 1    
    64   32   33 am   BACKBONE|DICT|INTERRES
    65   32   96 1    
    66   33   34 2    
    67   33   35 1    
    68   35   36 1    
    69   35   37 1    
    70   35   97 1    
    71   36   98 1    
    72   36   99 1    
    73   36  100 1    
    74   37   38 am   BACKBONE|DICT|INTERRES
    75   37  101 1    
    76   38   39 2    
    77   38   40 1    
    78   40   41 1    
    79   40   42 1    
    80   40  102 1    
    81   41  103 1    
    82   41  104 1    
    83   41  105 1    
    84   42   43 am   BACKBONE|DICT|INTERRES
    85   42  106 1    
    86   43   44 2    
    87   43   45 1    
    88   45   46 1    
    89   45   49 1    
    90   45  107 1    
    91   46   47 1    
    92   46  108 1    
    93   46  109 1    
    94   47   48 1    
    95   48  110 1    
    96   48  111 1    
    97   49   50 am   BACKBONE|DICT|INTERRES
    98   49  112 1    
    99   50   51 2    
   100   50   52 1    
   101   52   53 1    
   102   52   54 1    
   103   52  113 1    
   104   53  114 1    
   105   53  115 1    
   106   53  116 1    
   107   54   55 am   BACKBONE|DICT|INTERRES
   108   54  117 1    
   109   55   56 2    
   110   55   57 1    
   111   57   58 1    
   112   57   59 1    
   113   57  118 1    
   114   58  119 1    
   115   58  120 1    
   116   58  121 1    
   117   59   60 am   BACKBONE|DICT|INTERRES
   118   59  122 1    
   119   60   61 2    
   120   60   62 1    
   121   62   63 1    
   122   62   64 1    
   123   62  123 1    
   124   63  124 1    
   125   63  125 1    
   126   63  126 1    
   127   64   65 am   BACKBONE|DICT|INTERRES
   128   64  127 1    
   129   65   66 2    
@<TRIPOS>SUBSTRUCTURE
     1 UNK         1 GROUP             0       ****    0 ROOT    
