@<TRIPOS>MOLECULE
3R135
127   129    1
SMALL
USER_CHARGES


@<TRIPOS>ATOM
      1 CA        -79.5105   30.2097  -75.3080 C.3       0 UNK        -0.1998 
      2 C         -80.8275   29.7482  -75.9221 C.2       0 UNK         0.4909 
      3 O         -81.1576   30.1840  -77.0235 O.2       0 UNK        -0.5240 
      4 N         -81.6175   28.8835  -75.2752 N.am      1 UNK        -0.4739 
      5 CA        -81.3798   28.1729  -74.0133 C.3       1 UNK         0.0864 
      6 C6        -82.2467   28.7257  -72.8508 C.3       11 UNK        -0.0881 
      7 S7        -81.8987   30.4758  -72.4599 S.3       11 UNK        -0.2682 
      8 C8        -80.8563   30.3479  -70.9709 C.3       11 UNK         0.0289 
      9 C9        -79.5401   29.6407  -71.2581 C.ar      11 UNK        -0.0687 
     10 C10       -79.3177   28.3453  -70.7801 C.ar      11 UNK        -0.0823 
     11 C11       -78.1166   27.6851  -71.0553 C.ar      11 UNK        -0.0830 
     12 C12       -77.1521   28.3240  -71.8366 C.ar      11 UNK        -0.1021 
     13 C13       -77.3515   29.6211  -72.3085 C.ar      11 UNK        -0.0753 
     14 C14       -78.5435   30.2826  -72.0007 C.ar      11 UNK        -0.0933 
     15 C15       -76.2885   30.2923  -73.1666 C.3       11 UNK         0.0166 
     16 S16       -75.0713   31.2003  -72.1626 S.3       11 UNK        -0.2615 
     17 C17       -73.9560   29.8700  -71.5843 C.3       11 UNK        -0.0865 
     18 CA        -72.6073   29.8416  -72.3499 C.3       10 UNK         0.0862 
     19 C         -71.5760   28.8719  -71.6989 C.2       10 UNK         0.5551 
     20 N         -70.7935   28.1144  -72.4594 N.am      10 UNK        -0.7319 
     21 O         -71.4689   28.8133  -70.4763 O.2       10 UNK        -0.5018 
     22 N         -72.8055   29.5844  -73.7858 N.am      10 UNK        -0.4509 
     23 C         -72.2176   30.2746  -74.7697 C.2       10 UNK         0.4899 
     24 O         -71.4970   31.2577  -74.5868 O.2       10 UNK        -0.4839 
     25 CA        -72.4671   29.7600  -76.1998 C.3       9 UNK         0.0222 
     26 CB        -71.5454   30.4199  -77.2470 C.3       9 UNK        -0.1966 
     27 N         -72.3983   28.2977  -76.3101 N.am      9 UNK        -0.4218 
     28 C         -71.3698   27.4988  -75.9790 C.2       9 UNK         0.5020 
     29 O         -70.3268   27.9109  -75.4691 O.2       9 UNK        -0.5274 
     30 CA        -71.5165   25.9810  -76.2169 C.3       8 UNK         0.0270 
     31 CB        -71.4652   25.2242  -74.8792 C.3       8 UNK        -0.1976 
     32 N         -72.7361   25.6042  -76.9372 N.am      8 UNK        -0.4313 
     33 C         -72.9565   25.8229  -78.2408 C.2       8 UNK         0.5041 
     34 O         -72.1108   26.2772  -79.0119 O.2       8 UNK        -0.5577 
     35 CA        -74.3767   25.5401  -78.7597 C.3       7 UNK         0.0284 
     36 CB        -74.5006   24.0814  -79.2268 C.3       7 UNK        -0.1958 
     37 N         -75.4223   25.8464  -77.7738 N.am      7 UNK        -0.4454 
     38 C         -75.6727   27.0745  -77.2905 C.2       7 UNK         0.5089 
     39 O         -75.0681   28.0835  -77.6507 O.2       7 UNK        -0.5125 
     40 CA        -76.7295   27.1968  -76.1810 C.3       6 UNK         0.0408 
     41 CB        -78.1462   27.0808  -76.7647 C.3       6 UNK        -0.1791 
     42 N         -76.5329   26.1971  -75.1310 N.am      6 UNK        -0.4762 
     43 C         -75.4777   26.1502  -74.3022 C.2       6 UNK         0.5007 
     44 O         -74.6178   27.0330  -74.2408 O.2       6 UNK        -0.5032 
     45 CA        -75.3116   24.8785  -73.4425 C.3       5 UNK         0.0783 
     46 C46       -75.7837   25.0386  -71.9769 C.3       11 UNK        -0.0857 
     47 S47       -77.5976   25.0450  -71.7690 S.3       11 UNK        -0.2512 
     48 C48       -77.8488   26.3015  -70.4787 C.3       11 UNK         0.0225 
     49 N         -75.8852   23.6924  -74.0846 N.am      5 UNK        -0.4615 
     50 C         -75.3159   23.0520  -75.1117 C.2       4 UNK         0.5053 
     51 O         -74.2672   23.4170  -75.6433 O.2       4 UNK        -0.5105 
     52 CA        -76.0437   21.8052  -75.6385 C.3       4 UNK         0.0263 
     53 CB        -75.8888   20.6280  -74.6617 C.3       4 UNK        -0.1981 
     54 N         -77.4643   22.0375  -75.9117 N.am      4 UNK        -0.4224 
     55 C         -77.9192   22.8572  -76.8687 C.2       3 UNK         0.4895 
     56 O         -77.1935   23.5425  -77.5880 O.2       3 UNK        -0.5091 
     57 CA        -79.4444   22.9459  -77.0494 C.3       3 UNK         0.0250 
     58 CB        -79.9705   21.7141  -77.8045 C.3       3 UNK        -0.1996 
     59 N         -80.2309   23.1454  -75.8240 N.am      3 UNK        -0.4254 
     60 C         -79.9919   24.0713  -74.8854 C.2       2 UNK         0.5004 
     61 O         -78.9498   24.7235  -74.8100 O.2       2 UNK        -0.5226 
     62 CA        -81.1154   24.3410  -73.8718 C.3       2 UNK         0.0269 
     63 CB        -80.9530   23.4904  -72.6028 C.3       2 UNK        -0.1926 
     64 N         -81.1061   25.7683  -73.5302 N.am      2 UNK        -0.4687 
     65 C         -81.7168   26.6933  -74.2832 C.2       1 UNK         0.5165 
     66 O         -82.5249   26.4103  -75.1744 O.2       1 UNK        -0.5079 
     67 H67       -79.7060   30.8970  -74.4876 H         1 UNK         0.0900 
     68 H68       -78.9128   30.7414  -76.0479 H         1 UNK         0.0900 
     69 H69       -78.9081   29.3797  -74.9442 H         1 UNK         0.0900 
     70 H70       -82.4473   28.5521  -75.7504 H         1 UNK         0.2959 
     71 H71       -80.3285   28.2191  -73.7286 H         1 UNK         0.1079 
     72 H72       -82.1098   28.1270  -71.9484 H         1 UNK         0.0837 
     73 H73       -83.3070   28.6492  -73.0999 H         1 UNK         0.0837 
     74 H74       -81.4127   29.8372  -70.1834 H         1 UNK         0.0685 
     75 H75       -80.6506   31.3520  -70.5974 H         1 UNK         0.0685 
     76 H76       -80.0768   27.8561  -70.1850 H         1 UNK         0.1434 
     77 H77       -76.2385   27.8112  -72.0801 H         1 UNK         0.1329 
     78 H78       -78.7070   31.2901  -72.3577 H         1 UNK         0.1335 
     79 H79       -76.7621   30.9926  -73.8560 H         1 UNK         0.0680 
     80 H80       -75.7778   29.5563  -73.7890 H         1 UNK         0.0680 
     81 H81       -73.7867   30.0438  -70.5201 H         1 UNK         0.1032 
     82 H82       -74.4387   28.8982  -71.6498 H         1 UNK         0.1032 
     83 H83       -72.1635   30.8305  -72.2227 H         1 UNK         0.0461 
     84 H84       -70.8128   28.1878  -73.4694 H         1 UNK         0.3453 
     85 H85       -70.1284   27.5017  -72.0158 H         1 UNK         0.3453 
     86 H86       -73.3579   28.7662  -74.0196 H         1 UNK         0.2984 
     87 H87       -73.4938   30.0358  -76.4442 H         1 UNK         0.0554 
     88 H88       -71.7672   30.0601  -78.2517 H         1 UNK         0.0847 
     89 H89       -70.4932   30.2183  -77.0431 H         1 UNK         0.0847 
     90 H90       -71.6741   31.5029  -77.2563 H         1 UNK         0.0847 
     91 H91       -73.2297   27.8675  -76.6999 H         1 UNK         0.3141 
     92 H92       -70.6613   25.6650  -76.8176 H         1 UNK         0.0743 
     93 H93       -70.5031   25.3703  -74.3864 H         1 UNK         0.0784 
     94 H94       -72.2337   25.5750  -74.1915 H         1 UNK         0.0784 
     95 H95       -71.5964   24.1510  -75.0188 H         1 UNK         0.0784 
     96 H96       -73.4583   25.1318  -76.4019 H         1 UNK         0.3213 
     97 H97       -74.5415   26.1869  -79.6241 H         1 UNK         0.0855 
     98 H98       -74.3983   23.3809  -78.3974 H         1 UNK         0.0814 
     99 H99       -73.7291   23.8374  -79.9584 H         1 UNK         0.0814 
    100 H100      -75.4646   23.8987  -79.7017 H         1 UNK         0.0814 
    101 H101      -75.9947   25.0648  -77.4634 H         1 UNK         0.3105 
    102 H102      -76.6309   28.1839  -75.7250 H         1 UNK         0.0547 
    103 H103      -78.9045   27.1809  -75.9892 H         1 UNK         0.0837 
    104 H104      -78.3299   27.8615  -77.5038 H         1 UNK         0.0837 
    105 H105      -78.3050   26.1206  -77.2562 H         1 UNK         0.0837 
    106 H106      -77.2460   25.4733  -75.0553 H         1 UNK         0.3020 
    107 H107      -74.2339   24.7127  -73.3868 H         1 UNK         0.1245 
    108 H108      -75.3323   25.9194  -71.5203 H         1 UNK         0.0781 
    109 H109      -75.4047   24.1987  -71.3925 H         1 UNK         0.0781 
    110 H110      -76.9841   26.3402  -69.8150 H         1 UNK         0.0836 
    111 H111      -78.6874   25.9813  -69.8586 H         1 UNK         0.0836 
    112 H112      -76.7818   23.3846  -73.7355 H         1 UNK         0.3022 
    113 H113      -75.5670   21.5248  -76.5804 H         1 UNK         0.0747 
    114 H114      -76.3077   19.7113  -75.0771 H         1 UNK         0.0793 
    115 H115      -74.8363   20.4335  -74.4499 H         1 UNK         0.0793 
    116 H116      -76.3828   20.8209  -73.7086 H         1 UNK         0.0793 
    117 H117      -78.1346   21.5320  -75.3511 H         1 UNK         0.3047 
    118 H118      -79.6303   23.8206  -77.6761 H         1 UNK         0.0822 
    119 H119      -79.4085   21.5497  -78.7253 H         1 UNK         0.0807 
    120 H120      -81.0165   21.8369  -78.0861 H         1 UNK         0.0807 
    121 H121      -79.8884   20.8060  -77.2060 H         1 UNK         0.0807 
    122 H122      -81.1039   22.6397  -75.7789 H         1 UNK         0.2946 
    123 H123      -82.0727   24.0800  -74.3297 H         1 UNK         0.1144 
    124 H124      -80.9973   22.4267  -72.8394 H         1 UNK         0.0793 
    125 H125      -81.7484   23.6954  -71.8862 H         1 UNK         0.0793 
    126 H126      -80.0031   23.6696  -72.1046 H         1 UNK         0.0793 
    127 H127      -80.4101   26.0558  -72.8564 H         1 UNK         0.2896 
@<TRIPOS>BOND
     1    1    2 1    
     2    1   67 1    
     3    1   68 1    
     4    1   69 1    
     5    2    3 2    
     6    2    4 am   BACKBONE|DICT|INTERRES
     7    4    5 1    
     8    4   70 1    
     9    5    6 1    
    10    5   65 1    
    11    5   71 1    
    12    6    7 1    
    13    6   72 1    
    14    6   73 1    
    15    7    8 1    
    16    8    9 1    
    17    8   74 1    
    18    8   75 1    
    19    9   10 ar   
    20    9   14 ar   
    21   10   11 ar   
    22   10   76 1    
    23   11   12 ar   
    24   11   48 1    
    25   12   13 ar   
    26   12   77 1    
    27   13   14 ar   
    28   13   15 1    
    29   14   78 1    
    30   15   16 1    
    31   15   79 1    
    32   15   80 1    
    33   16   17 1    
    34   17   18 1    
    35   17   81 1    
    36   17   82 1    
    37   18   19 1    
    38   18   22 1    
    39   18   83 1    
    40   19   20 am   BACKBONE|DICT|INTERRES
    41   19   21 2    
    42   20   84 1    
    43   20   85 1    
    44   22   23 am   BACKBONE|DICT|INTERRES
    45   22   86 1    
    46   23   24 2    
    47   23   25 1    
    48   25   26 1    
    49   25   27 1    
    50   25   87 1    
    51   26   88 1    
    52   26   89 1    
    53   26   90 1    
    54   27   28 am   BACKBONE|DICT|INTERRES
    55   27   91 1    
    56   28   29 2    
    57   28   30 1    
    58   30   31 1    
    59   30   32 1    
    60   30   92 1    
    61   31   93 1    
    62   31   94 1    
    63   31   95 1    
    64   32   33 am   BACKBONE|DICT|INTERRES
    65   32   96 1    
    66   33   34 2    
    67   33   35 1    
    68   35   36 1    
    69   35   37 1    
    70   35   97 1    
    71   36   98 1    
    72   36   99 1    
    73   36  100 1    
    74   37   38 am   BACKBONE|DICT|INTERRES
    75   37  101 1    
    76   38   39 2    
    77   38   40 1    
    78   40   41 1    
    79   40   42 1    
    80   40  102 1    
    81   41  103 1    
    82   41  104 1    
    83   41  105 1    
    84   42   43 am   BACKBONE|DICT|INTERRES
    85   42  106 1    
    86   43   44 2    
    87   43   45 1    
    88   45   46 1    
    89   45   49 1    
    90   45  107 1    
    91   46   47 1    
    92   46  108 1    
    93   46  109 1    
    94   47   48 1    
    95   48  110 1    
    96   48  111 1    
    97   49   50 am   BACKBONE|DICT|INTERRES
    98   49  112 1    
    99   50   51 2    
   100   50   52 1    
   101   52   53 1    
   102   52   54 1    
   103   52  113 1    
   104   53  114 1    
   105   53  115 1    
   106   53  116 1    
   107   54   55 am   BACKBONE|DICT|INTERRES
   108   54  117 1    
   109   55   56 2    
   110   55   57 1    
   111   57   58 1    
   112   57   59 1    
   113   57  118 1    
   114   58  119 1    
   115   58  120 1    
   116   58  121 1    
   117   59   60 am   BACKBONE|DICT|INTERRES
   118   59  122 1    
   119   60   61 2    
   120   60   62 1    
   121   62   63 1    
   122   62   64 1    
   123   62  123 1    
   124   63  124 1    
   125   63  125 1    
   126   63  126 1    
   127   64   65 am   BACKBONE|DICT|INTERRES
   128   64  127 1    
   129   65   66 2    
@<TRIPOS>SUBSTRUCTURE
     1 UNK         1 GROUP             0       ****    0 ROOT    
