@<TRIPOS>MOLECULE
3R135
127   129    1
SMALL
USER_CHARGES


@<TRIPOS>ATOM
      1 CA        -86.0027   25.4436  -69.7966 C.3       0 UNK        -0.1998 
      2 C         -85.3508   26.4581  -70.7239 C.2       0 UNK         0.4909 
      3 O         -85.9805   27.4537  -71.0822 O.2       0 UNK        -0.5240 
      4 N         -84.0927   26.2137  -71.1144 N.am      1 UNK        -0.4739 
      5 CA        -83.3034   27.0824  -72.0013 C.3       1 UNK         0.0864 
      6 C6        -81.7921   26.7455  -71.9462 C.3       11 UNK        -0.0881 
      7 S7        -81.1229   26.8621  -70.2529 S.3       11 UNK        -0.2682 
      8 C8        -80.1210   28.3820  -70.3471 C.3       11 UNK         0.0289 
      9 C9        -78.8047   28.1864  -71.0925 C.ar      11 UNK        -0.0687 
     10 C10       -77.9324   27.1542  -70.7301 C.ar      11 UNK        -0.0823 
     11 C11       -76.7020   27.0005  -71.3741 C.ar      11 UNK        -0.0830 
     12 C12       -76.3437   27.8965  -72.3836 C.ar      11 UNK        -0.1021 
     13 C13       -77.2016   28.9334  -72.7613 C.ar      11 UNK        -0.0753 
     14 C14       -78.4339   29.0696  -72.1124 C.ar      11 UNK        -0.0933 
     15 C15       -76.8075   29.8997  -73.8735 C.3       11 UNK         0.0166 
     16 S16       -75.3661   30.9271  -73.4367 S.3       11 UNK        -0.2615 
     17 C17       -73.9566   29.8440  -73.8716 C.3       11 UNK        -0.0865 
     18 CA        -72.8227   30.5859  -74.6291 C.3       10 UNK         0.0862 
     19 C         -71.9016   31.3815  -73.6509 C.2       10 UNK         0.5551 
     20 N         -70.6637   30.9634  -73.4090 N.am      10 UNK        -0.7319 
     21 O         -72.3113   32.4062  -73.1120 O.2       10 UNK        -0.5018 
     22 N         -72.1060   29.6628  -75.5243 N.am      10 UNK        -0.4509 
     23 C         -71.2524   30.0395  -76.4866 C.2       10 UNK         0.4899 
     24 O         -71.0974   31.2104  -76.8371 O.2       10 UNK        -0.4839 
     25 CA        -70.4260   28.9240  -77.1631 C.3       9 UNK         0.0222 
     26 CB        -69.0638   29.4334  -77.6784 C.3       9 UNK        -0.1966 
     27 N         -70.2400   27.7241  -76.3336 N.am      9 UNK        -0.4218 
     28 C         -69.6906   27.6465  -75.1087 C.2       9 UNK         0.5020 
     29 O         -69.2451   28.6210  -74.5011 O.2       9 UNK        -0.5274 
     30 CA        -69.6751   26.2720  -74.4133 C.3       8 UNK         0.0270 
     31 CB        -70.4879   26.3214  -73.1064 C.3       8 UNK        -0.1976 
     32 N         -70.2205   25.2132  -75.2657 N.am      8 UNK        -0.4313 
     33 C         -69.4902   24.3921  -76.0337 C.2       8 UNK         0.5041 
     34 O         -68.2588   24.3831  -76.0470 O.2       8 UNK        -0.5577 
     35 CA        -70.2549   23.4264  -76.9612 C.3       7 UNK         0.0284 
     36 CB        -70.3811   22.0418  -76.3053 C.3       7 UNK        -0.1958 
     37 N         -71.5890   23.9016  -77.3435 N.am      7 UNK        -0.4454 
     38 C         -71.8366   25.0031  -78.0666 C.2       7 UNK         0.5089 
     39 O         -70.9575   25.7251  -78.5349 O.2       7 UNK        -0.5125 
     40 CA        -73.3108   25.4132  -78.2297 C.3       6 UNK         0.0408 
     41 CB        -73.8971   24.8171  -79.5183 C.3       6 UNK        -0.1791 
     42 N         -74.1661   25.0531  -77.0921 N.am      6 UNK        -0.4762 
     43 C         -73.9821   25.4396  -75.8214 C.2       6 UNK         0.5007 
     44 O         -73.0296   26.1323  -75.4545 O.2       6 UNK        -0.5032 
     45 CA        -75.0621   25.0076  -74.8075 C.3       5 UNK         0.0783 
     46 C46       -74.5200   25.0214  -73.3541 C.3       11 UNK        -0.0857 
     47 S47       -75.7570   24.4913  -72.1206 S.3       11 UNK        -0.2512 
     48 C48       -75.7504   25.8893  -70.9510 C.3       11 UNK         0.0225 
     49 N         -76.2492   25.8490  -74.9885 N.am      5 UNK        -0.4615 
     50 C         -77.1349   25.7052  -75.9811 C.2       4 UNK         0.5053 
     51 O         -77.1069   24.7776  -76.7946 O.2       4 UNK        -0.5105 
     52 CA        -78.1623   26.8328  -76.1482 C.3       4 UNK         0.0263 
     53 CB        -77.6022   27.9066  -77.0981 C.3       4 UNK        -0.1981 
     54 N         -79.4148   26.3273  -76.7067 N.am      4 UNK        -0.4224 
     55 C         -80.3580   25.6939  -76.0032 C.2       3 UNK         0.4895 
     56 O         -80.3105   25.5106  -74.7841 O.2       3 UNK        -0.5091 
     57 CA        -81.5557   25.1685  -76.8007 C.3       3 UNK         0.0250 
     58 CB        -81.3183   23.7227  -77.2691 C.3       3 UNK        -0.1996 
     59 N         -82.7289   25.2198  -75.9372 N.am      3 UNK        -0.4254 
     60 C         -83.9595   25.5858  -76.3106 C.2       2 UNK         0.5004 
     61 O         -84.2819   25.8188  -77.4764 O.2       2 UNK        -0.5226 
     62 CA        -85.0145   25.7259  -75.1974 C.3       2 UNK         0.0269 
     63 CB        -85.9263   24.4884  -75.1608 C.3       2 UNK        -0.1926 
     64 N         -84.4468   25.9404  -73.8610 N.am      2 UNK        -0.4687 
     65 C         -83.8087   27.0516  -73.4598 C.2       1 UNK         0.5165 
     66 O         -83.6166   28.0261  -74.1879 O.2       1 UNK        -0.5079 
     67 H67       -85.3307   24.6198  -69.5564 H         1 UNK         0.0900 
     68 H68       -86.8955   25.0283  -70.2632 H         1 UNK         0.0900 
     69 H69       -86.2970   25.9235  -68.8637 H         1 UNK         0.0900 
     70 H70       -83.6111   25.3978  -70.7631 H         1 UNK         0.2959 
     71 H71       -83.4292   28.1105  -71.6532 H         1 UNK         0.1079 
     72 H72       -81.6107   25.7320  -72.3092 H         1 UNK         0.0837 
     73 H73       -81.2227   27.4040  -72.6059 H         1 UNK         0.0837 
     74 H74       -79.8953   28.7114  -69.3321 H         1 UNK         0.0685 
     75 H75       -80.7179   29.1747  -70.8011 H         1 UNK         0.0685 
     76 H76       -78.2116   26.4749  -69.9361 H         1 UNK         0.1434 
     77 H77       -75.3862   27.7931  -72.8654 H         1 UNK         0.1329 
     78 H78       -79.1006   29.8739  -72.3923 H         1 UNK         0.1335 
     79 H79       -77.6392   30.5673  -74.1040 H         1 UNK         0.0680 
     80 H80       -76.6069   29.3480  -74.7893 H         1 UNK         0.0680 
     81 H81       -73.5767   29.3641  -72.9673 H         1 UNK         0.1032 
     82 H82       -74.3346   29.0358  -74.4990 H         1 UNK         0.1032 
     83 H83       -73.2883   31.3283  -75.2805 H         1 UNK         0.0461 
     84 H84       -70.2869   30.1340  -73.8579 H         1 UNK         0.3453 
     85 H85       -70.0828   31.4947  -72.7808 H         1 UNK         0.3453 
     86 H86       -72.1736   28.6781  -75.3092 H         1 UNK         0.2984 
     87 H87       -71.0077   28.6031  -78.0283 H         1 UNK         0.0554 
     88 H88       -68.5049   28.6387  -78.1725 H         1 UNK         0.0847 
     89 H89       -68.4469   29.8246  -76.8686 H         1 UNK         0.0847 
     90 H90       -69.1922   30.2356  -78.4062 H         1 UNK         0.0847 
     91 H91       -70.5603   26.8636  -76.7613 H         1 UNK         0.3141 
     92 H92       -68.6370   26.0490  -74.1584 H         1 UNK         0.0743 
     93 H93       -70.0694   27.0522  -72.4129 H         1 UNK         0.0784 
     94 H94       -71.5268   26.6011  -73.2829 H         1 UNK         0.0784 
     95 H95       -70.4819   25.3567  -72.5990 H         1 UNK         0.0784 
     96 H96       -71.2323   25.1879  -75.3390 H         1 UNK         0.3213 
     97 H97       -69.6663   23.3211  -77.8753 H         1 UNK         0.0855 
     98 H98       -70.9791   22.0784  -75.3938 H         1 UNK         0.0814 
     99 H99       -69.4001   21.6481  -76.0349 H         1 UNK         0.0814 
    100 H100      -70.8406   21.3211  -76.9819 H         1 UNK         0.0814 
    101 H101      -72.3790   23.3723  -77.0037 H         1 UNK         0.3105 
    102 H102      -73.3350   26.5014  -78.3179 H         1 UNK         0.0547 
    103 H103      -73.9342   23.7277  -79.4799 H         1 UNK         0.0837 
    104 H104      -74.9085   25.1814  -79.6999 H         1 UNK         0.0837 
    105 H105      -73.2952   25.0927  -80.3855 H         1 UNK         0.0837 
    106 H106      -75.0238   24.5566  -77.3082 H         1 UNK         0.3020 
    107 H107      -75.3322   23.9740  -75.0380 H         1 UNK         0.1245 
    108 H108      -74.1265   26.0026  -73.0899 H         1 UNK         0.0781 
    109 H109      -73.6712   24.3399  -73.2704 H         1 UNK         0.0781 
    110 H110      -74.7393   26.2823  -70.8343 H         1 UNK         0.0836 
    111 H111      -76.0337   25.5109  -69.9677 H         1 UNK         0.0836 
    112 H112      -76.3548   26.6164  -74.3421 H         1 UNK         0.3022 
    113 H113      -78.3586   27.2841  -75.1726 H         1 UNK         0.0747 
    114 H114      -78.2503   28.7826  -77.1312 H         1 UNK         0.0793 
    115 H115      -76.6134   28.2433  -76.7854 H         1 UNK         0.0793 
    116 H116      -77.4970   27.5283  -78.1159 H         1 UNK         0.0793 
    117 H117      -79.5120   26.3850  -77.7101 H         1 UNK         0.3047 
    118 H118      -81.7052   25.8132  -77.6700 H         1 UNK         0.0822 
    119 H119      -80.4374   23.6581  -77.9092 H         1 UNK         0.0807 
    120 H120      -82.1660   23.3489  -77.8437 H         1 UNK         0.0807 
    121 H121      -81.1605   23.0478  -76.4268 H         1 UNK         0.0807 
    122 H122      -82.5320   25.0978  -74.9525 H         1 UNK         0.2946 
    123 H123      -85.6262   26.5964  -75.4457 H         1 UNK         0.1144 
    124 H124      -86.3912   24.3171  -76.1329 H         1 UNK         0.0793 
    125 H125      -86.7318   24.6096  -74.4362 H         1 UNK         0.0793 
    126 H126      -85.3719   23.5856  -74.9014 H         1 UNK         0.0793 
    127 H127      -84.5691   25.1973  -73.1881 H         1 UNK         0.2896 
@<TRIPOS>BOND
     1    1    2 1    
     2    1   67 1    
     3    1   68 1    
     4    1   69 1    
     5    2    3 2    
     6    2    4 am   BACKBONE|DICT|INTERRES
     7    4    5 1    
     8    4   70 1    
     9    5    6 1    
    10    5   65 1    
    11    5   71 1    
    12    6    7 1    
    13    6   72 1    
    14    6   73 1    
    15    7    8 1    
    16    8    9 1    
    17    8   74 1    
    18    8   75 1    
    19    9   10 ar   
    20    9   14 ar   
    21   10   11 ar   
    22   10   76 1    
    23   11   12 ar   
    24   11   48 1    
    25   12   13 ar   
    26   12   77 1    
    27   13   14 ar   
    28   13   15 1    
    29   14   78 1    
    30   15   16 1    
    31   15   79 1    
    32   15   80 1    
    33   16   17 1    
    34   17   18 1    
    35   17   81 1    
    36   17   82 1    
    37   18   19 1    
    38   18   22 1    
    39   18   83 1    
    40   19   20 am   BACKBONE|DICT|INTERRES
    41   19   21 2    
    42   20   84 1    
    43   20   85 1    
    44   22   23 am   BACKBONE|DICT|INTERRES
    45   22   86 1    
    46   23   24 2    
    47   23   25 1    
    48   25   26 1    
    49   25   27 1    
    50   25   87 1    
    51   26   88 1    
    52   26   89 1    
    53   26   90 1    
    54   27   28 am   BACKBONE|DICT|INTERRES
    55   27   91 1    
    56   28   29 2    
    57   28   30 1    
    58   30   31 1    
    59   30   32 1    
    60   30   92 1    
    61   31   93 1    
    62   31   94 1    
    63   31   95 1    
    64   32   33 am   BACKBONE|DICT|INTERRES
    65   32   96 1    
    66   33   34 2    
    67   33   35 1    
    68   35   36 1    
    69   35   37 1    
    70   35   97 1    
    71   36   98 1    
    72   36   99 1    
    73   36  100 1    
    74   37   38 am   BACKBONE|DICT|INTERRES
    75   37  101 1    
    76   38   39 2    
    77   38   40 1    
    78   40   41 1    
    79   40   42 1    
    80   40  102 1    
    81   41  103 1    
    82   41  104 1    
    83   41  105 1    
    84   42   43 am   BACKBONE|DICT|INTERRES
    85   42  106 1    
    86   43   44 2    
    87   43   45 1    
    88   45   46 1    
    89   45   49 1    
    90   45  107 1    
    91   46   47 1    
    92   46  108 1    
    93   46  109 1    
    94   47   48 1    
    95   48  110 1    
    96   48  111 1    
    97   49   50 am   BACKBONE|DICT|INTERRES
    98   49  112 1    
    99   50   51 2    
   100   50   52 1    
   101   52   53 1    
   102   52   54 1    
   103   52  113 1    
   104   53  114 1    
   105   53  115 1    
   106   53  116 1    
   107   54   55 am   BACKBONE|DICT|INTERRES
   108   54  117 1    
   109   55   56 2    
   110   55   57 1    
   111   57   58 1    
   112   57   59 1    
   113   57  118 1    
   114   58  119 1    
   115   58  120 1    
   116   58  121 1    
   117   59   60 am   BACKBONE|DICT|INTERRES
   118   59  122 1    
   119   60   61 2    
   120   60   62 1    
   121   62   63 1    
   122   62   64 1    
   123   62  123 1    
   124   63  124 1    
   125   63  125 1    
   126   63  126 1    
   127   64   65 am   BACKBONE|DICT|INTERRES
   128   64  127 1    
   129   65   66 2    
@<TRIPOS>SUBSTRUCTURE
     1 UNK         1 GROUP             0       ****    0 ROOT    
