@<TRIPOS>MOLECULE
3R135
127   129    1
SMALL
USER_CHARGES


@<TRIPOS>ATOM
      1 CA        -81.8723   21.8454  -72.7303 C.3       0 UNK        -0.1998 
      2 C         -81.0994   23.1540  -72.6796 C.2       0 UNK         0.4909 
      3 O         -79.9372   23.1884  -73.0849 O.2       0 UNK        -0.5240 
      4 N         -81.7435   24.2303  -72.2014 N.am      1 UNK        -0.4739 
      5 CA        -81.1868   25.5826  -72.0468 C.3       1 UNK         0.0864 
      6 C6        -80.1593   25.6552  -70.8838 C.3       11 UNK        -0.0881 
      7 S7        -79.8865   27.3561  -70.2691 S.3       11 UNK        -0.2682 
      8 C8        -78.0946   27.5610  -70.5478 C.3       11 UNK         0.0289 
      9 C9        -77.7288   28.9369  -71.0850 C.ar      11 UNK        -0.0687 
     10 C10       -78.3282   29.4130  -72.2529 C.ar      11 UNK        -0.0823 
     11 C11       -77.9255   30.6228  -72.8221 C.ar      11 UNK        -0.0830 
     12 C12       -76.9163   31.3670  -72.2035 C.ar      11 UNK        -0.1021 
     13 C13       -76.3074   30.9054  -71.0309 C.ar      11 UNK        -0.0753 
     14 C14       -76.7331   29.6989  -70.4668 C.ar      11 UNK        -0.0933 
     15 C15       -75.1930   31.7136  -70.3789 C.3       11 UNK         0.0166 
     16 S16       -73.6838   31.7586  -71.4034 S.3       11 UNK        -0.2615 
     17 C17       -72.6896   30.3501  -70.7903 C.3       11 UNK        -0.0865 
     18 CA        -72.7021   29.0141  -71.6025 C.3       10 UNK         0.0862 
     19 C         -73.8452   28.0304  -71.2126 C.2       10 UNK         0.5551 
     20 N         -74.4497   27.2962  -72.1369 N.am      10 UNK        -0.7319 
     21 O         -74.1364   27.8676  -70.0303 O.2       10 UNK        -0.5018 
     22 N         -72.3812   29.1380  -73.0371 N.am      10 UNK        -0.4509 
     23 C         -73.1685   29.5216  -74.0503 C.2       10 UNK         0.4899 
     24 O         -74.3248   29.9137  -73.9304 O.2       10 UNK        -0.4839 
     25 CA        -72.5798   29.3811  -75.4638 C.3       9 UNK         0.0222 
     26 CB        -71.3408   30.2763  -75.6786 C.3       9 UNK        -0.1966 
     27 N         -72.3392   27.9749  -75.8267 N.am      9 UNK        -0.4218 
     28 C         -71.4239   27.1418  -75.3077 C.2       9 UNK         0.5020 
     29 O         -70.5713   27.4967  -74.4907 O.2       9 UNK        -0.5274 
     30 CA        -71.4522   25.6647  -75.7293 C.3       8 UNK         0.0270 
     31 CB        -71.5171   24.7480  -74.4922 C.3       8 UNK        -0.1976 
     32 N         -72.5672   25.3140  -76.6165 N.am      8 UNK        -0.4313 
     33 C         -72.4173   24.6453  -77.7681 C.2       8 UNK         0.5041 
     34 O         -71.3289   24.4526  -78.3130 O.2       8 UNK        -0.5577 
     35 CA        -73.6743   24.0254  -78.3974 C.3       7 UNK         0.0284 
     36 CB        -74.0498   22.7279  -77.6627 C.3       7 UNK        -0.1958 
     37 N         -74.8309   24.9197  -78.4361 N.am      7 UNK        -0.4454 
     38 C         -74.9703   25.9269  -79.3080 C.2       7 UNK         0.5089 
     39 O         -74.1047   26.2583  -80.1190 O.2       7 UNK        -0.5125 
     40 CA        -76.3109   26.6829  -79.2888 C.3       6 UNK         0.0408 
     41 CB        -77.3923   25.8936  -80.0435 C.3       6 UNK        -0.1791 
     42 N         -76.7820   26.9840  -77.9372 N.am      6 UNK        -0.4762 
     43 C         -76.1625   27.8186  -77.0907 C.2       6 UNK         0.5007 
     44 O         -75.1352   28.4339  -77.3729 O.2       6 UNK        -0.5032 
     45 CA        -76.7742   27.9456  -75.6806 C.3       5 UNK         0.0783 
     46 C46       -78.0502   28.8278  -75.7043 C.3       11 UNK        -0.0857 
     47 S47       -77.6686   30.6096  -75.5947 S.3       11 UNK        -0.2512 
     48 C48       -78.5812   31.1227  -74.1017 C.3       11 UNK         0.0225 
     49 N         -77.0086   26.6289  -75.0746 N.am      5 UNK        -0.4615 
     50 C         -76.0632   25.6988  -74.8709 C.2       4 UNK         0.5053 
     51 O         -74.8643   25.8827  -75.0829 O.2       4 UNK        -0.5105 
     52 CA        -76.5288   24.3103  -74.3998 C.3       4 UNK         0.0263 
     53 CB        -76.6199   24.2482  -72.8703 C.3       4 UNK        -0.1981 
     54 N         -77.8091   23.9135  -74.9906 N.am      4 UNK        -0.4224 
     55 C         -77.9871   23.6806  -76.2995 C.2       3 UNK         0.4895 
     56 O         -77.0798   23.7111  -77.1298 O.2       3 UNK        -0.5091 
     57 CA        -79.4267   23.4376  -76.7749 C.3       3 UNK         0.0250 
     58 CB        -79.8929   22.0113  -76.4417 C.3       3 UNK        -0.1996 
     59 N         -80.3554   24.4216  -76.2155 N.am      3 UNK        -0.4254 
     60 C         -80.3351   25.7286  -76.5161 C.2       2 UNK         0.5004 
     61 O         -79.5681   26.2294  -77.3385 O.2       2 UNK        -0.5226 
     62 CA        -81.3127   26.6385  -75.7525 C.3       2 UNK         0.0269 
     63 CB        -82.6359   26.7698  -76.5226 C.3       2 UNK        -0.1926 
     64 N         -81.5876   26.1923  -74.3823 N.am      2 UNK        -0.4687 
     65 C         -80.6755   26.1298  -73.4003 C.2       1 UNK         0.5165 
     66 O         -79.4894   26.4206  -73.5616 O.2       1 UNK        -0.5079 
     67 H67       -81.9688   21.5058  -73.7610 H         1 UNK         0.0900 
     68 H68       -81.3428   21.0775  -72.1671 H         1 UNK         0.0900 
     69 H69       -82.8727   21.9448  -72.3096 H         1 UNK         0.0900 
     70 H70       -82.7039   24.1268  -71.9025 H         1 UNK         0.2959 
     71 H71       -82.0304   26.2176  -71.7700 H         1 UNK         0.1079 
     72 H72       -80.5348   25.0809  -70.0355 H         1 UNK         0.0837 
     73 H73       -79.2229   25.1716  -71.1597 H         1 UNK         0.0837 
     74 H74       -77.5674   27.3491  -69.6164 H         1 UNK         0.0685 
     75 H75       -77.7376   26.8340  -71.2750 H         1 UNK         0.0685 
     76 H76       -79.1024   28.8257  -72.7232 H         1 UNK         0.1434 
     77 H77       -76.5864   32.2969  -72.6461 H         1 UNK         0.1329 
     78 H78       -76.2594   29.3327  -69.5666 H         1 UNK         0.1335 
     79 H79       -74.9597   31.3345  -69.3829 H         1 UNK         0.0680 
     80 H80       -75.5439   32.7368  -70.2377 H         1 UNK         0.0680 
     81 H81       -71.6603   30.7104  -70.7654 H         1 UNK         0.1032 
     82 H82       -72.9331   30.1682  -69.7423 H         1 UNK         0.1032 
     83 H83       -71.8304   28.4713  -71.2343 H         1 UNK         0.0461 
     84 H84       -75.1663   26.6533  -71.8497 H         1 UNK         0.3453 
     85 H85       -74.2288   27.4129  -73.1130 H         1 UNK         0.3453 
     86 H86       -71.4873   28.7392  -73.3095 H         1 UNK         0.2984 
     87 H87       -73.3394   29.7443  -76.1553 H         1 UNK         0.0554 
     88 H88       -71.5888   31.3229  -75.4977 H         1 UNK         0.0847 
     89 H89       -70.9748   30.2034  -76.7026 H         1 UNK         0.0847 
     90 H90       -70.5168   30.0250  -75.0112 H         1 UNK         0.0847 
     91 H91       -73.0143   27.5867  -76.4730 H         1 UNK         0.3141 
     92 H92       -70.4970   25.4863  -76.2268 H         1 UNK         0.0743 
     93 H93       -70.6768   24.9270  -73.8201 H         1 UNK         0.0784 
     94 H94       -72.4327   24.9098  -73.9213 H         1 UNK         0.0784 
     95 H95       -71.4814   23.6962  -74.7763 H         1 UNK         0.0784 
     96 H96       -73.5000   25.4401  -76.2232 H         1 UNK         0.3213 
     97 H97       -73.4243   23.7578  -79.4267 H         1 UNK         0.0855 
     98 H98       -74.3419   22.9184  -76.6296 H         1 UNK         0.0814 
     99 H99       -73.2097   22.0323  -77.6417 H         1 UNK         0.0814 
    100 H100      -74.8787   22.2193  -78.1554 H         1 UNK         0.0814 
    101 H101      -75.6228   24.6727  -77.8458 H         1 UNK         0.3105 
    102 H102      -76.1640   27.6323  -79.8080 H         1 UNK         0.0547 
    103 H103      -78.3229   26.4579  -80.1062 H         1 UNK         0.0837 
    104 H104      -77.0757   25.6740  -81.0639 H         1 UNK         0.0837 
    105 H105      -77.6130   24.9425  -79.5574 H         1 UNK         0.0837 
    106 H106      -77.6464   26.5375  -77.6401 H         1 UNK         0.3020 
    107 H107      -76.0322   28.4305  -75.0458 H         1 UNK         0.1245 
    108 H108      -78.7050   28.5623  -74.8788 H         1 UNK         0.0781 
    109 H109      -78.6478   28.6567  -76.6013 H         1 UNK         0.0781 
    110 H110      -79.6137   30.7756  -74.1653 H         1 UNK         0.0836 
    111 H111      -78.6320   32.2123  -74.0822 H         1 UNK         0.0836 
    112 H112      -77.9598   26.4212  -74.7858 H         1 UNK         0.3022 
    113 H113      -75.7770   23.5863  -74.7198 H         1 UNK         0.0747 
    114 H114      -76.8944   23.2495  -72.5301 H         1 UNK         0.0793 
    115 H115      -75.6642   24.4990  -72.4090 H         1 UNK         0.0793 
    116 H116      -77.3662   24.9439  -72.4933 H         1 UNK         0.0793 
    117 H117      -78.6054   23.8429  -74.3609 H         1 UNK         0.3047 
    118 H118      -79.4383   23.5496  -77.8615 H         1 UNK         0.0822 
    119 H119      -79.2366   21.2731  -76.9045 H         1 UNK         0.0807 
    120 H120      -80.9006   21.8255  -76.8135 H         1 UNK         0.0807 
    121 H121      -79.8889   21.8183  -75.3692 H         1 UNK         0.0807 
    122 H122      -80.9947   24.1014  -75.5034 H         1 UNK         0.2946 
    123 H123      -80.8549   27.6279  -75.6942 H         1 UNK         0.1144 
    124 H124      -83.3044   27.4863  -76.0448 H         1 UNK         0.0793 
    125 H125      -83.1598   25.8158  -76.5941 H         1 UNK         0.0793 
    126 H126      -82.4610   27.1226  -77.5403 H         1 UNK         0.0793 
    127 H127      -82.5351   25.9070  -74.1791 H         1 UNK         0.2896 
@<TRIPOS>BOND
     1    1    2 1    
     2    1   67 1    
     3    1   68 1    
     4    1   69 1    
     5    2    3 2    
     6    2    4 am   BACKBONE|DICT|INTERRES
     7    4    5 1    
     8    4   70 1    
     9    5    6 1    
    10    5   65 1    
    11    5   71 1    
    12    6    7 1    
    13    6   72 1    
    14    6   73 1    
    15    7    8 1    
    16    8    9 1    
    17    8   74 1    
    18    8   75 1    
    19    9   10 ar   
    20    9   14 ar   
    21   10   11 ar   
    22   10   76 1    
    23   11   12 ar   
    24   11   48 1    
    25   12   13 ar   
    26   12   77 1    
    27   13   14 ar   
    28   13   15 1    
    29   14   78 1    
    30   15   16 1    
    31   15   79 1    
    32   15   80 1    
    33   16   17 1    
    34   17   18 1    
    35   17   81 1    
    36   17   82 1    
    37   18   19 1    
    38   18   22 1    
    39   18   83 1    
    40   19   20 am   BACKBONE|DICT|INTERRES
    41   19   21 2    
    42   20   84 1    
    43   20   85 1    
    44   22   23 am   BACKBONE|DICT|INTERRES
    45   22   86 1    
    46   23   24 2    
    47   23   25 1    
    48   25   26 1    
    49   25   27 1    
    50   25   87 1    
    51   26   88 1    
    52   26   89 1    
    53   26   90 1    
    54   27   28 am   BACKBONE|DICT|INTERRES
    55   27   91 1    
    56   28   29 2    
    57   28   30 1    
    58   30   31 1    
    59   30   32 1    
    60   30   92 1    
    61   31   93 1    
    62   31   94 1    
    63   31   95 1    
    64   32   33 am   BACKBONE|DICT|INTERRES
    65   32   96 1    
    66   33   34 2    
    67   33   35 1    
    68   35   36 1    
    69   35   37 1    
    70   35   97 1    
    71   36   98 1    
    72   36   99 1    
    73   36  100 1    
    74   37   38 am   BACKBONE|DICT|INTERRES
    75   37  101 1    
    76   38   39 2    
    77   38   40 1    
    78   40   41 1    
    79   40   42 1    
    80   40  102 1    
    81   41  103 1    
    82   41  104 1    
    83   41  105 1    
    84   42   43 am   BACKBONE|DICT|INTERRES
    85   42  106 1    
    86   43   44 2    
    87   43   45 1    
    88   45   46 1    
    89   45   49 1    
    90   45  107 1    
    91   46   47 1    
    92   46  108 1    
    93   46  109 1    
    94   47   48 1    
    95   48  110 1    
    96   48  111 1    
    97   49   50 am   BACKBONE|DICT|INTERRES
    98   49  112 1    
    99   50   51 2    
   100   50   52 1    
   101   52   53 1    
   102   52   54 1    
   103   52  113 1    
   104   53  114 1    
   105   53  115 1    
   106   53  116 1    
   107   54   55 am   BACKBONE|DICT|INTERRES
   108   54  117 1    
   109   55   56 2    
   110   55   57 1    
   111   57   58 1    
   112   57   59 1    
   113   57  118 1    
   114   58  119 1    
   115   58  120 1    
   116   58  121 1    
   117   59   60 am   BACKBONE|DICT|INTERRES
   118   59  122 1    
   119   60   61 2    
   120   60   62 1    
   121   62   63 1    
   122   62   64 1    
   123   62  123 1    
   124   63  124 1    
   125   63  125 1    
   126   63  126 1    
   127   64   65 am   BACKBONE|DICT|INTERRES
   128   64  127 1    
   129   65   66 2    
@<TRIPOS>SUBSTRUCTURE
     1 UNK         1 GROUP             0       ****    0 ROOT    
