@<TRIPOS>MOLECULE
3R135
127   129    1
SMALL
USER_CHARGES


@<TRIPOS>ATOM
      1 CA        -82.3128   27.2432  -68.9798 C.3       0 UNK        -0.1998 
      2 C         -81.8009   27.2126  -70.4116 C.2       0 UNK         0.4909 
      3 O         -80.6114   26.9801  -70.6257 O.2       0 UNK        -0.5240 
      4 N         -82.6941   27.4380  -71.3862 N.am      1 UNK        -0.4739 
      5 CA        -82.4697   27.4965  -72.8427 C.3       1 UNK         0.0864 
      6 C6        -81.4433   28.5713  -73.2862 C.3       11 UNK        -0.0881 
      7 S7        -81.9652   30.2650  -72.8424 S.3       11 UNK        -0.2682 
      8 C8        -80.7724   30.7158  -71.5310 C.3       11 UNK         0.0289 
      9 C9        -79.3042   30.6355  -71.9485 C.ar      11 UNK        -0.0687 
     10 C10       -78.8947   30.9456  -73.2511 C.ar      11 UNK        -0.0823 
     11 C11       -77.5568   30.8079  -73.6302 C.ar      11 UNK        -0.0830 
     12 C12       -76.6101   30.4281  -72.6781 C.ar      11 UNK        -0.1021 
     13 C13       -76.9976   30.1328  -71.3698 C.ar      11 UNK        -0.0753 
     14 C14       -78.3454   30.2335  -71.0117 C.ar      11 UNK        -0.0933 
     15 C15       -75.9543   29.7059  -70.3482 C.3       11 UNK         0.0166 
     16 S16       -75.8470   27.8944  -70.1720 S.3       11 UNK        -0.2615 
     17 C17       -75.2487   27.3646  -71.8146 C.3       11 UNK        -0.0865 
     18 CA        -73.7316   27.6285  -72.0409 C.3       10 UNK         0.0862 
     19 C         -72.8167   26.4577  -71.5726 C.2       10 UNK         0.5551 
     20 N         -71.7113   26.1693  -72.2503 N.am      10 UNK        -0.7319 
     21 O         -73.1012   25.8007  -70.5750 O.2       10 UNK        -0.5018 
     22 N         -73.4683   28.0237  -73.4330 N.am      10 UNK        -0.4509 
     23 C         -73.0058   29.2134  -73.8349 C.2       10 UNK         0.4899 
     24 O         -72.8542   30.1764  -73.0822 O.2       10 UNK        -0.4839 
     25 CA        -72.6596   29.3569  -75.3343 C.3       9 UNK         0.0222 
     26 CB        -71.6125   30.4617  -75.5911 C.3       9 UNK        -0.1966 
     27 N         -72.2498   28.1029  -75.9919 N.am      9 UNK        -0.4218 
     28 C         -71.2327   27.3071  -75.6229 C.2       9 UNK         0.5020 
     29 O         -70.5322   27.5269  -74.6328 O.2       9 UNK        -0.5274 
     30 CA        -70.9468   26.0523  -76.4657 C.3       8 UNK         0.0270 
     31 CB        -70.3569   24.9057  -75.6155 C.3       8 UNK        -0.1976 
     32 N         -72.1160   25.5559  -77.2008 N.am      8 UNK        -0.4313 
     33 C         -72.0186   24.8799  -78.3560 C.2       8 UNK         0.5041 
     34 O         -70.9675   24.7604  -78.9885 O.2       8 UNK        -0.5577 
     35 CA        -73.2756   24.1742  -78.8897 C.3       7 UNK         0.0284 
     36 CB        -73.4836   22.8290  -78.1765 C.3       7 UNK        -0.1958 
     37 N         -74.4939   24.9766  -78.7992 N.am      7 UNK        -0.4454 
     38 C         -74.7676   26.0126  -79.6034 C.2       7 UNK         0.5089 
     39 O         -73.9945   26.4456  -80.4584 O.2       7 UNK        -0.5125 
     40 CA        -76.1466   26.6697  -79.4336 C.3       6 UNK         0.0408 
     41 CB        -77.2240   25.8804  -80.1948 C.3       6 UNK        -0.1791 
     42 N         -76.5326   26.7978  -78.0288 N.am      6 UNK        -0.4762 
     43 C         -75.9667   27.6617  -77.1757 C.2       6 UNK         0.5007 
     44 O         -75.0631   28.4362  -77.4892 O.2       6 UNK        -0.5032 
     45 CA        -76.4665   27.6212  -75.7166 C.3       5 UNK         0.0783 
     46 C46       -77.8573   28.2855  -75.5401 C.3       11 UNK        -0.0857 
     47 S47       -78.0463   29.9665  -76.2457 S.3       11 UNK        -0.2512 
     48 C48       -77.1343   31.0296  -75.0749 C.3       11 UNK         0.0225 
     49 N         -76.4664   26.2463  -75.1999 N.am      5 UNK        -0.4615 
     50 C         -75.3746   25.4744  -75.0725 C.2       4 UNK         0.5053 
     51 O         -74.2300   25.8880  -75.2538 O.2       4 UNK        -0.5105 
     52 CA        -75.5704   23.9858  -74.7242 C.3       4 UNK         0.0263 
     53 CB        -75.3807   23.7442  -73.2199 C.3       4 UNK        -0.1981 
     54 N         -76.8638   23.4423  -75.1383 N.am      4 UNK        -0.4224 
     55 C         -77.3442   23.4305  -76.3898 C.2       3 UNK         0.4895 
     56 O         -76.6871   23.7686  -77.3743 O.2       3 UNK        -0.5091 
     57 CA        -78.8234   23.0380  -76.5707 C.3       3 UNK         0.0250 
     58 CB        -78.9301   21.6115  -77.1320 C.3       3 UNK        -0.1996 
     59 N         -79.6454   23.1454  -75.3546 N.am      3 UNK        -0.4254 
     60 C         -79.8315   24.2592  -74.6294 C.2       2 UNK         0.5004 
     61 O         -79.2925   25.3400  -74.8846 O.2       2 UNK        -0.5226 
     62 CA        -80.6914   24.1037  -73.3632 C.3       2 UNK         0.0269 
     63 CB        -79.8682   23.4553  -72.2370 C.3       2 UNK        -0.1926 
     64 N         -81.2007   25.3867  -72.8800 N.am      2 UNK        -0.4687 
     65 C         -82.1401   26.1277  -73.4769 C.2       1 UNK         0.5165 
     66 O         -82.7550   25.7628  -74.4806 O.2       1 UNK        -0.5079 
     67 H67       -82.1434   26.2793  -68.5007 H         1 UNK         0.0900 
     68 H68       -81.7818   28.0051  -68.4098 H         1 UNK         0.0900 
     69 H69       -83.3788   27.4646  -68.9309 H         1 UNK         0.0900 
     70 H70       -83.6556   27.5943  -71.1166 H         1 UNK         0.2959 
     71 H71       -83.4340   27.7851  -73.2653 H         1 UNK         0.1079 
     72 H72       -80.4555   28.3559  -72.8765 H         1 UNK         0.0837 
     73 H73       -81.3185   28.5525  -74.3709 H         1 UNK         0.0837 
     74 H74       -80.9839   31.7346  -71.2046 H         1 UNK         0.0685 
     75 H75       -80.9540   30.0721  -70.6696 H         1 UNK         0.0685 
     76 H76       -79.6221   31.2519  -73.9899 H         1 UNK         0.1434 
     77 H77       -75.5703   30.3382  -72.9575 H         1 UNK         0.1329 
     78 H78       -78.6471   29.9897  -70.0021 H         1 UNK         0.1335 
     79 H79       -74.9748   30.1061  -70.6143 H         1 UNK         0.0680 
     80 H80       -76.2006   30.1364  -69.3765 H         1 UNK         0.0680 
     81 H81       -75.4812   26.3072  -71.9318 H         1 UNK         0.1032 
     82 H82       -75.8531   27.8603  -72.5725 H         1 UNK         0.1032 
     83 H83       -73.4363   28.4548  -71.3936 H         1 UNK         0.0461 
     84 H84       -71.1272   25.4138  -71.9305 H         1 UNK         0.3453 
     85 H85       -71.4180   26.7302  -73.0431 H         1 UNK         0.3453 
     86 H86       -73.5478   27.2772  -74.1187 H         1 UNK         0.2984 
     87 H87       -73.5825   29.6751  -75.8171 H         1 UNK         0.0554 
     88 H88       -71.4031   30.5704  -76.6552 H         1 UNK         0.0847 
     89 H89       -70.6707   30.2512  -75.0833 H         1 UNK         0.0847 
     90 H90       -71.9651   31.4300  -75.2336 H         1 UNK         0.0847 
     91 H91       -72.7998   27.8401  -76.7997 H         1 UNK         0.3141 
     92 H92       -70.1848   26.3669  -77.1818 H         1 UNK         0.0743 
     93 H93       -71.0670   24.5655  -74.8606 H         1 UNK         0.0784 
     94 H94       -70.0876   24.0480  -76.2318 H         1 UNK         0.0784 
     95 H95       -69.4497   25.2184  -75.0969 H         1 UNK         0.0784 
     96 H96       -73.0059   25.6056  -76.7095 H         1 UNK         0.3213 
     97 H97       -73.1025   23.9583  -79.9466 H         1 UNK         0.0855 
     98 H98       -73.6146   22.9561  -77.1035 H         1 UNK         0.0814 
     99 H99       -72.6215   22.1764  -78.3211 H         1 UNK         0.0814 
    100 H100      -74.3572   22.3030  -78.5623 H         1 UNK         0.0814 
    101 H101      -75.2242   24.6469  -78.1714 H         1 UNK         0.3105 
    102 H102      -76.0954   27.6714  -79.8662 H         1 UNK         0.0547 
    103 H103      -78.1935   26.3752  -80.1369 H         1 UNK         0.0837 
    104 H104      -76.9682   25.7942  -81.2517 H         1 UNK         0.0837 
    105 H105      -77.3396   24.8683  -79.8052 H         1 UNK         0.0837 
    106 H106      -77.2208   26.1452  -77.6806 H         1 UNK         0.3020 
    107 H107      -75.7525   28.1940  -75.1236 H         1 UNK         0.1245 
    108 H108      -78.1282   28.3045  -74.4836 H         1 UNK         0.0781 
    109 H109      -78.6197   27.6667  -76.0161 H         1 UNK         0.0781 
    110 H110      -77.3027   32.0743  -75.3394 H         1 UNK         0.0836 
    111 H111      -76.0656   30.8496  -75.2016 H         1 UNK         0.0836 
    112 H112      -77.3817   25.8367  -75.0312 H         1 UNK         0.3022 
    113 H113      -74.7964   23.4283  -75.2508 H         1 UNK         0.0747 
    114 H114      -75.3638   22.6783  -72.9918 H         1 UNK         0.0793 
    115 H115      -74.4341   24.1593  -72.8710 H         1 UNK         0.0793 
    116 H116      -76.1805   24.1962  -72.6328 H         1 UNK         0.0793 
    117 H117      -77.4811   23.1385  -74.4006 H         1 UNK         0.3047 
    118 H118      -79.2430   23.7273  -77.3063 H         1 UNK         0.0822 
    119 H119      -78.5530   20.8702  -76.4262 H         1 UNK         0.0807 
    120 H120      -78.3517   21.5090  -78.0517 H         1 UNK         0.0807 
    121 H121      -79.9619   21.3543  -77.3723 H         1 UNK         0.0807 
    122 H122      -80.1086   22.2974  -75.0591 H         1 UNK         0.2946 
    123 H123      -81.5447   23.4641  -73.6003 H         1 UNK         0.1144 
    124 H124      -79.5006   22.4704  -72.5278 H         1 UNK         0.0793 
    125 H125      -79.0024   24.0634  -71.9703 H         1 UNK         0.0793 
    126 H126      -80.4685   23.3196  -71.3370 H         1 UNK         0.0793 
    127 H127      -80.7463   25.7936  -72.0658 H         1 UNK         0.2896 
@<TRIPOS>BOND
     1    1    2 1    
     2    1   67 1    
     3    1   68 1    
     4    1   69 1    
     5    2    3 2    
     6    2    4 am   BACKBONE|DICT|INTERRES
     7    4    5 1    
     8    4   70 1    
     9    5    6 1    
    10    5   65 1    
    11    5   71 1    
    12    6    7 1    
    13    6   72 1    
    14    6   73 1    
    15    7    8 1    
    16    8    9 1    
    17    8   74 1    
    18    8   75 1    
    19    9   10 ar   
    20    9   14 ar   
    21   10   11 ar   
    22   10   76 1    
    23   11   12 ar   
    24   11   48 1    
    25   12   13 ar   
    26   12   77 1    
    27   13   14 ar   
    28   13   15 1    
    29   14   78 1    
    30   15   16 1    
    31   15   79 1    
    32   15   80 1    
    33   16   17 1    
    34   17   18 1    
    35   17   81 1    
    36   17   82 1    
    37   18   19 1    
    38   18   22 1    
    39   18   83 1    
    40   19   20 am   BACKBONE|DICT|INTERRES
    41   19   21 2    
    42   20   84 1    
    43   20   85 1    
    44   22   23 am   BACKBONE|DICT|INTERRES
    45   22   86 1    
    46   23   24 2    
    47   23   25 1    
    48   25   26 1    
    49   25   27 1    
    50   25   87 1    
    51   26   88 1    
    52   26   89 1    
    53   26   90 1    
    54   27   28 am   BACKBONE|DICT|INTERRES
    55   27   91 1    
    56   28   29 2    
    57   28   30 1    
    58   30   31 1    
    59   30   32 1    
    60   30   92 1    
    61   31   93 1    
    62   31   94 1    
    63   31   95 1    
    64   32   33 am   BACKBONE|DICT|INTERRES
    65   32   96 1    
    66   33   34 2    
    67   33   35 1    
    68   35   36 1    
    69   35   37 1    
    70   35   97 1    
    71   36   98 1    
    72   36   99 1    
    73   36  100 1    
    74   37   38 am   BACKBONE|DICT|INTERRES
    75   37  101 1    
    76   38   39 2    
    77   38   40 1    
    78   40   41 1    
    79   40   42 1    
    80   40  102 1    
    81   41  103 1    
    82   41  104 1    
    83   41  105 1    
    84   42   43 am   BACKBONE|DICT|INTERRES
    85   42  106 1    
    86   43   44 2    
    87   43   45 1    
    88   45   46 1    
    89   45   49 1    
    90   45  107 1    
    91   46   47 1    
    92   46  108 1    
    93   46  109 1    
    94   47   48 1    
    95   48  110 1    
    96   48  111 1    
    97   49   50 am   BACKBONE|DICT|INTERRES
    98   49  112 1    
    99   50   51 2    
   100   50   52 1    
   101   52   53 1    
   102   52   54 1    
   103   52  113 1    
   104   53  114 1    
   105   53  115 1    
   106   53  116 1    
   107   54   55 am   BACKBONE|DICT|INTERRES
   108   54  117 1    
   109   55   56 2    
   110   55   57 1    
   111   57   58 1    
   112   57   59 1    
   113   57  118 1    
   114   58  119 1    
   115   58  120 1    
   116   58  121 1    
   117   59   60 am   BACKBONE|DICT|INTERRES
   118   59  122 1    
   119   60   61 2    
   120   60   62 1    
   121   62   63 1    
   122   62   64 1    
   123   62  123 1    
   124   63  124 1    
   125   63  125 1    
   126   63  126 1    
   127   64   65 am   BACKBONE|DICT|INTERRES
   128   64  127 1    
   129   65   66 2    
@<TRIPOS>SUBSTRUCTURE
     1 UNK         1 GROUP             0       ****    0 ROOT    
