@<TRIPOS>MOLECULE
3R135
127   129    1
SMALL
USER_CHARGES


@<TRIPOS>ATOM
      1 CA        -80.2655   29.1242  -75.2185 C.3       0 UNK        -0.1998 
      2 C         -81.5566   29.6662  -74.6085 C.2       0 UNK         0.4909 
      3 O         -82.0750   30.6695  -75.0947 O.2       0 UNK        -0.5240 
      4 N         -82.1117   29.0598  -73.5490 N.am      1 UNK        -0.4739 
      5 CA        -81.6518   27.8356  -72.8817 C.3       1 UNK         0.0864 
      6 C6        -82.3462   27.6355  -71.5085 C.3       11 UNK        -0.0881 
      7 S7        -82.0771   28.8752  -70.1794 S.3       11 UNK        -0.2682 
      8 C8        -80.8489   30.1079  -70.7554 C.3       11 UNK         0.0289 
      9 C9        -79.4563   29.5663  -71.0787 C.ar      11 UNK        -0.0687 
     10 C10       -78.9396   28.4188  -70.4629 C.ar      11 UNK        -0.0823 
     11 C11       -77.6792   27.9222  -70.8091 C.ar      11 UNK        -0.0830 
     12 C12       -76.9204   28.6073  -71.7654 C.ar      11 UNK        -0.1021 
     13 C13       -77.4080   29.7686  -72.3693 C.ar      11 UNK        -0.0753 
     14 C14       -78.6755   30.2417  -72.0221 C.ar      11 UNK        -0.0933 
     15 C15       -76.5682   30.4907  -73.4122 C.3       11 UNK         0.0166 
     16 S16       -74.9864   31.0596  -72.7165 S.3       11 UNK        -0.2615 
     17 C17       -74.0866   31.5941  -74.2153 C.3       11 UNK        -0.0865 
     18 CA        -73.6418   30.4404  -75.1711 C.3       10 UNK         0.0862 
     19 C         -72.7821   30.9586  -76.3652 C.2       10 UNK         0.5551 
     20 N         -73.2531   31.9770  -77.0745 N.am      10 UNK        -0.7319 
     21 O         -71.7053   30.4517  -76.6751 O.2       10 UNK        -0.5018 
     22 N         -73.0597   29.2837  -74.4684 N.am      10 UNK        -0.4509 
     23 C         -71.9531   29.2872  -73.7142 C.2       10 UNK         0.4899 
     24 O         -71.2504   30.2786  -73.5122 O.2       10 UNK        -0.4839 
     25 CA        -71.5726   27.9603  -73.0462 C.3       9 UNK         0.0222 
     26 CB        -72.3869   27.7661  -71.7549 C.3       9 UNK        -0.1966 
     27 N         -71.7953   26.8145  -73.9322 N.am      9 UNK        -0.4218 
     28 C         -70.8209   26.0996  -74.5083 C.2       9 UNK         0.5020 
     29 O         -69.6227   26.3750  -74.4247 O.2       9 UNK        -0.5274 
     30 CA        -71.2389   24.8275  -75.2627 C.3       8 UNK         0.0270 
     31 CB        -71.6014   23.7108  -74.2691 C.3       8 UNK        -0.1976 
     32 N         -72.3402   25.0221  -76.2083 N.am      8 UNK        -0.4313 
     33 C         -72.2146   25.6297  -77.3967 C.2       8 UNK         0.5041 
     34 O         -71.1785   26.1722  -77.7829 O.2       8 UNK        -0.5577 
     35 CA        -73.4353   25.5931  -78.3329 C.3       7 UNK         0.0284 
     36 CB        -73.6064   24.2000  -78.9615 C.3       7 UNK        -0.1958 
     37 N         -74.6699   25.9800  -77.6533 N.am      7 UNK        -0.4454 
     38 C         -74.9871   27.2417  -77.3356 C.2       7 UNK         0.5089 
     39 O         -74.3179   28.2205  -77.6613 O.2       7 UNK        -0.5125 
     40 CA        -76.2574   27.4500  -76.4929 C.3       6 UNK         0.0408 
     41 CB        -77.4913   27.5610  -77.3996 C.3       6 UNK        -0.1791 
     42 N         -76.4652   26.4002  -75.4920 N.am      6 UNK        -0.4762 
     43 C         -75.6121   26.1030  -74.5000 C.2       6 UNK         0.5007 
     44 O         -74.5791   26.7363  -74.2788 O.2       6 UNK        -0.5032 
     45 CA        -75.9211   24.8406  -73.6698 C.3       5 UNK         0.0783 
     46 C46       -76.8477   25.1298  -72.4639 C.3       11 UNK        -0.0857 
     47 S47       -75.8998   25.7179  -71.0220 S.3       11 UNK        -0.2512 
     48 C48       -77.1658   26.6640  -70.1075 C.3       11 UNK         0.0225 
     49 N         -76.4420   23.7616  -74.5127 N.am      5 UNK        -0.4615 
     50 C         -75.7067   23.0787  -75.4000 C.2       4 UNK         0.5053 
     51 O         -74.5090   23.2810  -75.5912 O.2       4 UNK        -0.5105 
     52 CA        -76.4393   22.0246  -76.2450 C.3       4 UNK         0.0263 
     53 CB        -76.5890   20.7106  -75.4624 C.3       4 UNK        -0.1981 
     54 N         -77.7548   22.4870  -76.6918 N.am      4 UNK        -0.4224 
     55 C         -77.9440   23.4985  -77.5513 C.2       3 UNK         0.4895 
     56 O         -77.0274   24.1010  -78.1099 O.2       3 UNK        -0.5091 
     57 CA        -79.3986   23.9408  -77.7916 C.3       3 UNK         0.0250 
     58 CB        -80.0297   23.1225  -78.9292 C.3       3 UNK        -0.1996 
     59 N         -80.2479   23.8603  -76.5953 N.am      3 UNK        -0.4254 
     60 C         -80.0348   24.5498  -75.4661 C.2       2 UNK         0.5004 
     61 O         -79.0695   25.2973  -75.2921 O.2       2 UNK        -0.5226 
     62 CA        -81.0246   24.3244  -74.3143 C.3       2 UNK         0.0269 
     63 CB        -80.5646   23.1442  -73.4426 C.3       2 UNK        -0.1926 
     64 N         -81.1045   25.5257  -73.4818 N.am      2 UNK        -0.4687 
     65 C         -81.8594   26.5918  -73.7740 C.2       1 UNK         0.5165 
     66 O         -82.6857   26.6108  -74.6903 O.2       1 UNK        -0.5079 
     67 H67       -79.8214   29.8629  -75.8854 H         1 UNK         0.0900 
     68 H68       -80.4739   28.2300  -75.8047 H         1 UNK         0.0900 
     69 H69       -79.5205   28.8823  -74.4623 H         1 UNK         0.0900 
     70 H70       -82.9756   29.4363  -73.1872 H         1 UNK         0.2959 
     71 H71       -80.5787   27.9090  -72.7190 H         1 UNK         0.1079 
     72 H72       -83.4252   27.5517  -71.6535 H         1 UNK         0.0837 
     73 H73       -82.0425   26.6793  -71.0775 H         1 UNK         0.0837 
     74 H74       -81.2599   30.6473  -71.6086 H         1 UNK         0.0685 
     75 H75       -80.7356   30.8522  -69.9664 H         1 UNK         0.0685 
     76 H76       -79.5228   27.9006  -69.7145 H         1 UNK         0.1434 
     77 H77       -75.9372   28.2532  -72.0420 H         1 UNK         0.1329 
     78 H78       -79.0609   31.1345  -72.4957 H         1 UNK         0.1335 
     79 H79       -76.3809   29.8019  -74.2328 H         1 UNK         0.0680 
     80 H80       -77.1047   31.3434  -73.8311 H         1 UNK         0.0680 
     81 H81       -73.2128   32.1576  -73.8835 H         1 UNK         0.1032 
     82 H82       -74.7160   32.3109  -74.7443 H         1 UNK         0.1032 
     83 H83       -74.5412   30.0441  -75.6379 H         1 UNK         0.0461 
     84 H84       -72.7110   32.3166  -77.8536 H         1 UNK         0.3453 
     85 H85       -74.1442   32.3985  -76.8671 H         1 UNK         0.3453 
     86 H86       -73.5753   28.4153  -74.5571 H         1 UNK         0.2984 
     87 H87       -70.5194   28.0236  -72.7647 H         1 UNK         0.0554 
     88 H88       -72.0932   26.8551  -71.2335 H         1 UNK         0.0847 
     89 H89       -73.4576   27.7060  -71.9537 H         1 UNK         0.0847 
     90 H90       -72.2321   28.5987  -71.0673 H         1 UNK         0.0847 
     91 H91       -72.7660   26.5555  -74.0947 H         1 UNK         0.3141 
     92 H92       -70.3707   24.4878  -75.8320 H         1 UNK         0.0743 
     93 H93       -72.4854   23.9615  -73.6817 H         1 UNK         0.0784 
     94 H94       -71.7997   22.7711  -74.7850 H         1 UNK         0.0784 
     95 H95       -70.7847   23.5293  -73.5690 H         1 UNK         0.0784 
     96 H96       -73.2128   24.5431  -75.9930 H         1 UNK         0.3213 
     97 H97       -73.2530   26.3029  -79.1431 H         1 UNK         0.0855 
     98 H98       -72.7039   23.9002  -79.4957 H         1 UNK         0.0814 
     99 H99       -74.4273   24.1889  -79.6790 H         1 UNK         0.0814 
    100 H100      -73.8112   23.4353  -78.2120 H         1 UNK         0.0814 
    101 H101      -75.3205   25.2413  -77.4116 H         1 UNK         0.3105 
    102 H102      -76.1513   28.3911  -75.9566 H         1 UNK         0.0547 
    103 H103      -77.4157   28.4317  -78.0520 H         1 UNK         0.0837 
    104 H104      -77.6037   26.6869  -78.0398 H         1 UNK         0.0837 
    105 H105      -78.4049   27.6666  -76.8182 H         1 UNK         0.0837 
    106 H106      -77.3309   25.8676  -75.5592 H         1 UNK         0.3020 
    107 H107      -74.9636   24.4848  -73.2813 H         1 UNK         0.1245 
    108 H108      -77.3547   24.2172  -72.1471 H         1 UNK         0.0781 
    109 H109      -77.6384   25.8355  -72.7269 H         1 UNK         0.0781 
    110 H110      -76.7444   26.9581  -69.1455 H         1 UNK         0.0836 
    111 H111      -77.9984   25.9938  -69.8870 H         1 UNK         0.0836 
    112 H112      -77.4344   23.5882  -74.4646 H         1 UNK         0.3022 
    113 H113      -75.8306   21.8283  -77.1304 H         1 UNK         0.0747 
    114 H114      -77.0363   19.9309  -76.0792 H         1 UNK         0.0793 
    115 H115      -75.6165   20.3417  -75.1326 H         1 UNK         0.0793 
    116 H116      -77.2093   20.8335  -74.5737 H         1 UNK         0.0793 
    117 H117      -78.5645   22.0373  -76.2908 H         1 UNK         0.3047 
    118 H118      -79.3720   24.9872  -78.1021 H         1 UNK         0.0822 
    119 H119      -81.0238   23.4927  -79.1806 H         1 UNK         0.0807 
    120 H120      -80.1193   22.0670  -78.6691 H         1 UNK         0.0807 
    121 H121      -79.4253   23.1846  -79.8355 H         1 UNK         0.0807 
    122 H122      -81.0552   23.2558  -76.6553 H         1 UNK         0.2946 
    123 H123      -82.0109   24.0995  -74.7276 H         1 UNK         0.1144 
    124 H124      -80.5132   22.2222  -74.0232 H         1 UNK         0.0793 
    125 H125      -81.2591   22.9668  -72.6210 H         1 UNK         0.0793 
    126 H126      -79.5772   23.3154  -73.0128 H         1 UNK         0.0793 
    127 H127      -80.4299   25.5917  -72.7339 H         1 UNK         0.2896 
@<TRIPOS>BOND
     1    1    2 1    
     2    1   67 1    
     3    1   68 1    
     4    1   69 1    
     5    2    3 2    
     6    2    4 am   BACKBONE|DICT|INTERRES
     7    4    5 1    
     8    4   70 1    
     9    5    6 1    
    10    5   65 1    
    11    5   71 1    
    12    6    7 1    
    13    6   72 1    
    14    6   73 1    
    15    7    8 1    
    16    8    9 1    
    17    8   74 1    
    18    8   75 1    
    19    9   10 ar   
    20    9   14 ar   
    21   10   11 ar   
    22   10   76 1    
    23   11   12 ar   
    24   11   48 1    
    25   12   13 ar   
    26   12   77 1    
    27   13   14 ar   
    28   13   15 1    
    29   14   78 1    
    30   15   16 1    
    31   15   79 1    
    32   15   80 1    
    33   16   17 1    
    34   17   18 1    
    35   17   81 1    
    36   17   82 1    
    37   18   19 1    
    38   18   22 1    
    39   18   83 1    
    40   19   20 am   BACKBONE|DICT|INTERRES
    41   19   21 2    
    42   20   84 1    
    43   20   85 1    
    44   22   23 am   BACKBONE|DICT|INTERRES
    45   22   86 1    
    46   23   24 2    
    47   23   25 1    
    48   25   26 1    
    49   25   27 1    
    50   25   87 1    
    51   26   88 1    
    52   26   89 1    
    53   26   90 1    
    54   27   28 am   BACKBONE|DICT|INTERRES
    55   27   91 1    
    56   28   29 2    
    57   28   30 1    
    58   30   31 1    
    59   30   32 1    
    60   30   92 1    
    61   31   93 1    
    62   31   94 1    
    63   31   95 1    
    64   32   33 am   BACKBONE|DICT|INTERRES
    65   32   96 1    
    66   33   34 2    
    67   33   35 1    
    68   35   36 1    
    69   35   37 1    
    70   35   97 1    
    71   36   98 1    
    72   36   99 1    
    73   36  100 1    
    74   37   38 am   BACKBONE|DICT|INTERRES
    75   37  101 1    
    76   38   39 2    
    77   38   40 1    
    78   40   41 1    
    79   40   42 1    
    80   40  102 1    
    81   41  103 1    
    82   41  104 1    
    83   41  105 1    
    84   42   43 am   BACKBONE|DICT|INTERRES
    85   42  106 1    
    86   43   44 2    
    87   43   45 1    
    88   45   46 1    
    89   45   49 1    
    90   45  107 1    
    91   46   47 1    
    92   46  108 1    
    93   46  109 1    
    94   47   48 1    
    95   48  110 1    
    96   48  111 1    
    97   49   50 am   BACKBONE|DICT|INTERRES
    98   49  112 1    
    99   50   51 2    
   100   50   52 1    
   101   52   53 1    
   102   52   54 1    
   103   52  113 1    
   104   53  114 1    
   105   53  115 1    
   106   53  116 1    
   107   54   55 am   BACKBONE|DICT|INTERRES
   108   54  117 1    
   109   55   56 2    
   110   55   57 1    
   111   57   58 1    
   112   57   59 1    
   113   57  118 1    
   114   58  119 1    
   115   58  120 1    
   116   58  121 1    
   117   59   60 am   BACKBONE|DICT|INTERRES
   118   59  122 1    
   119   60   61 2    
   120   60   62 1    
   121   62   63 1    
   122   62   64 1    
   123   62  123 1    
   124   63  124 1    
   125   63  125 1    
   126   63  126 1    
   127   64   65 am   BACKBONE|DICT|INTERRES
   128   64  127 1    
   129   65   66 2    
@<TRIPOS>SUBSTRUCTURE
     1 UNK         1 GROUP             0       ****    0 ROOT    
