@<TRIPOS>MOLECULE
3R135
127   129    1
SMALL
USER_CHARGES


@<TRIPOS>ATOM
      1 CA        -75.1507   25.5495  -70.3751 C.3       0 UNK        -0.1998 
      2 C         -76.5459   25.1508  -69.9211 C.2       0 UNK         0.4909 
      3 O         -76.6827   24.3774  -68.9729 O.2       0 UNK        -0.5240 
      4 N         -77.5845   25.6785  -70.5831 N.am      1 UNK        -0.4739 
      5 CA        -78.9950   25.4202  -70.2642 C.3       1 UNK         0.0864 
      6 C6        -79.9284   26.4823  -70.8995 C.3       11 UNK        -0.0881 
      7 S7        -79.8823   26.5366  -72.7293 S.3       11 UNK        -0.2682 
      8 C8        -80.6785   28.1445  -73.0472 C.3       11 UNK         0.0289 
      9 C9        -79.6767   29.2109  -73.4703 C.ar      11 UNK        -0.0687 
     10 C10       -79.8340   29.8756  -74.6899 C.ar      11 UNK        -0.0823 
     11 C11       -78.9243   30.8601  -75.0896 C.ar      11 UNK        -0.0830 
     12 C12       -77.8379   31.1673  -74.2635 C.ar      11 UNK        -0.1021 
     13 C13       -77.6760   30.5202  -73.0337 C.ar      11 UNK        -0.0753 
     14 C14       -78.6070   29.5549  -72.6392 C.ar      11 UNK        -0.0933 
     15 C15       -76.5113   30.8770  -72.1195 C.3       11 UNK         0.0166 
     16 S16       -75.4987   29.4174  -71.7314 S.3       11 UNK        -0.2615 
     17 C17       -74.0438   30.1810  -70.9387 C.3       11 UNK        -0.0865 
     18 CA        -72.9473   30.5971  -71.9558 C.3       10 UNK         0.0862 
     19 C         -71.7167   31.2133  -71.2293 C.2       10 UNK         0.5551 
     20 N         -70.5234   30.6421  -71.3388 N.am      10 UNK        -0.7319 
     21 O         -71.8492   32.2332  -70.5572 O.2       10 UNK        -0.5018 
     22 N         -72.6356   29.5096  -72.8969 N.am      10 UNK        -0.4509 
     23 C         -72.0925   29.6596  -74.1079 C.2       10 UNK         0.4899 
     24 O         -71.7124   30.7409  -74.5577 O.2       10 UNK        -0.4839 
     25 CA        -71.9695   28.4016  -74.9849 C.3       9 UNK         0.0222 
     26 CB        -70.6675   27.6338  -74.6860 C.3       9 UNK        -0.1966 
     27 N         -73.1425   27.5153  -74.9581 N.am      9 UNK        -0.4218 
     28 C         -73.6045   26.7370  -73.9668 C.2       9 UNK         0.5020 
     29 O         -73.1152   26.6990  -72.8372 O.2       9 UNK        -0.5274 
     30 CA        -74.8108   25.8356  -74.2939 C.3       8 UNK         0.0270 
     31 CB        -76.1371   26.5790  -74.0652 C.3       8 UNK        -0.1976 
     32 N         -74.7819   25.3197  -75.6639 N.am      8 UNK        -0.4313 
     33 C         -73.8545   24.4850  -76.1562 C.2       8 UNK         0.5041 
     34 O         -72.9497   23.9872  -75.4851 O.2       8 UNK        -0.5577 
     35 CA        -73.9342   24.1712  -77.6574 C.3       7 UNK         0.0284 
     36 CB        -74.9356   23.0397  -77.9314 C.3       7 UNK        -0.1958 
     37 N         -74.3055   25.3587  -78.4290 N.am      7 UNK        -0.4454 
     38 C         -73.4330   26.2888  -78.8408 C.2       7 UNK         0.5089 
     39 O         -72.2163   26.2114  -78.6701 O.2       7 UNK        -0.5125 
     40 CA        -74.0087   27.5187  -79.5658 C.3       6 UNK         0.0408 
     41 CB        -74.0338   27.2817  -81.0841 C.3       6 UNK        -0.1791 
     42 N         -75.3504   27.8941  -79.1118 N.am      6 UNK        -0.4762 
     43 C         -75.6340   28.3913  -77.8987 C.2       6 UNK         0.5007 
     44 O         -74.7894   28.5831  -77.0254 O.2       6 UNK        -0.5032 
     45 CA        -77.1186   28.6880  -77.6032 C.3       5 UNK         0.0783 
     46 C46       -77.4709   30.1155  -78.0896 C.3       11 UNK        -0.0857 
     47 S47       -79.2258   30.5485  -77.8475 S.3       11 UNK        -0.2512 
     48 C48       -79.1516   31.6307  -76.3845 C.3       11 UNK         0.0225 
     49 N         -78.0307   27.6683  -78.1447 N.am      5 UNK        -0.4615 
     50 C         -77.9835   26.3580  -77.8727 C.2       4 UNK         0.5053 
     51 O         -77.0857   25.8383  -77.2098 O.2       4 UNK        -0.5105 
     52 CA        -79.0963   25.4921  -78.4890 C.3       4 UNK         0.0263 
     53 CB        -78.5363   24.5664  -79.5877 C.3       4 UNK        -0.1981 
     54 N         -79.8659   24.7481  -77.4805 N.am      4 UNK        -0.4224 
     55 C         -79.4613   23.7417  -76.6910 C.2       3 UNK         0.4895 
     56 O         -78.3533   23.2029  -76.7345 O.2       3 UNK        -0.5091 
     57 CA        -80.4920   23.2114  -75.6887 C.3       3 UNK         0.0250 
     58 CB        -81.3458   22.0932  -76.3169 C.3       3 UNK        -0.1996 
     59 N         -79.7536   22.7114  -74.5346 N.am      3 UNK        -0.4254 
     60 C         -80.2474   22.4616  -73.3186 C.2       2 UNK         0.5004 
     61 O         -81.4437   22.5359  -73.0349 O.2       2 UNK        -0.5226 
     62 CA        -79.2259   22.1120  -72.2222 C.3       2 UNK         0.0269 
     63 CB        -77.9929   21.3480  -72.7470 C.3       2 UNK        -0.1926 
     64 N         -78.7885   23.3505  -71.5818 N.am      2 UNK        -0.4687 
     65 C         -79.4600   23.9886  -70.6129 C.2       1 UNK         0.5165 
     66 O         -80.4199   23.5039  -70.0108 O.2       1 UNK        -0.5079 
     67 H67       -74.7209   24.7737  -71.0079 H         1 UNK         0.0900 
     68 H68       -74.4971   25.6866  -69.5141 H         1 UNK         0.0900 
     69 H69       -75.1590   26.4843  -70.9334 H         1 UNK         0.0900 
     70 H70       -77.4248   26.3119  -71.3533 H         1 UNK         0.2959 
     71 H71       -79.0984   25.5101  -69.1801 H         1 UNK         0.1079 
     72 H72       -80.9612   26.3122  -70.5883 H         1 UNK         0.0837 
     73 H73       -79.6674   27.4658  -70.5074 H         1 UNK         0.0837 
     74 H74       -81.2197   28.4855  -72.1637 H         1 UNK         0.0685 
     75 H75       -81.4304   27.9981  -73.8241 H         1 UNK         0.0685 
     76 H76       -80.6728   29.6365  -75.3295 H         1 UNK         0.1434 
     77 H77       -77.1309   31.9278  -74.5662 H         1 UNK         0.1329 
     78 H78       -78.4838   29.0591  -71.6874 H         1 UNK         0.1335 
     79 H79       -75.8793   31.6359  -72.5833 H         1 UNK         0.0680 
     80 H80       -76.8955   31.3084  -71.1943 H         1 UNK         0.0680 
     81 H81       -73.6399   29.4593  -70.2262 H         1 UNK         0.1032 
     82 H82       -74.3692   31.0388  -70.3467 H         1 UNK         0.1032 
     83 H83       -73.3646   31.4107  -72.5521 H         1 UNK         0.0461 
     84 H84       -69.7316   31.0504  -70.8676 H         1 UNK         0.3453 
     85 H85       -70.4109   29.8081  -71.8923 H         1 UNK         0.3453 
     86 H86       -72.9061   28.5710  -72.6157 H         1 UNK         0.2984 
     87 H87       -71.9075   28.7507  -76.0170 H         1 UNK         0.0554 
     88 H88       -70.5478   26.7841  -75.3585 H         1 UNK         0.0847 
     89 H89       -70.6385   27.2576  -73.6630 H         1 UNK         0.0847 
     90 H90       -69.7974   28.2780  -74.8186 H         1 UNK         0.0847 
     91 H91       -73.7111   27.5675  -75.7996 H         1 UNK         0.3141 
     92 H92       -74.7775   24.9781  -73.6191 H         1 UNK         0.0743 
     93 H93       -76.2091   27.4754  -74.6814 H         1 UNK         0.0784 
     94 H94       -76.9959   25.9469  -74.2939 H         1 UNK         0.0784 
     95 H95       -76.2367   26.8949  -73.0287 H         1 UNK         0.0784 
     96 H96       -75.5479   25.6045  -76.2735 H         1 UNK         0.3213 
     97 H97       -72.9483   23.8284  -77.9797 H         1 UNK         0.0855 
     98 H98       -75.9445   23.3162  -77.6287 H         1 UNK         0.0814 
     99 H99       -74.6663   22.1383  -77.3796 H         1 UNK         0.0814 
    100 H100      -74.9622   22.7787  -78.9893 H         1 UNK         0.0814 
    101 H101      -75.2945   25.5316  -78.5520 H         1 UNK         0.3105 
    102 H102      -73.3407   28.3593  -79.3654 H         1 UNK         0.0547 
    103 H103      -73.0401   27.0257  -81.4548 H         1 UNK         0.0837 
    104 H104      -74.7025   26.4639  -81.3559 H         1 UNK         0.0837 
    105 H105      -74.3566   28.1738  -81.6209 H         1 UNK         0.0837 
    106 H106      -76.1101   27.7608  -79.7640 H         1 UNK         0.3020 
    107 H107      -77.2362   28.6671  -76.5174 H         1 UNK         0.1245 
    108 H108      -77.2579   30.2196  -79.1555 H         1 UNK         0.0781 
    109 H109      -76.8446   30.8545  -77.5856 H         1 UNK         0.0781 
    110 H110      -80.0978   32.1676  -76.3039 H         1 UNK         0.0836 
    111 H111      -78.3851   32.3929  -76.5331 H         1 UNK         0.0836 
    112 H112      -78.7949   28.0268  -78.6994 H         1 UNK         0.3022 
    113 H113      -79.8153   26.1594  -78.9671 H         1 UNK         0.0747 
    114 H114      -79.3255   23.9661  -80.0401 H         1 UNK         0.0793 
    115 H115      -78.0721   25.1469  -80.3858 H         1 UNK         0.0793 
    116 H116      -77.7770   23.8849  -79.2039 H         1 UNK         0.0793 
    117 H117      -80.8046   25.0935  -77.3359 H         1 UNK         0.3047 
    118 H118      -81.1335   24.0342  -75.3653 H         1 UNK         0.0822 
    119 H119      -81.8753   22.4537  -77.1996 H         1 UNK         0.0807 
    120 H120      -82.0977   21.7231  -75.6199 H         1 UNK         0.0807 
    121 H121      -80.7316   21.2468  -76.6270 H         1 UNK         0.0807 
    122 H122      -78.7567   22.6390  -74.6992 H         1 UNK         0.2946 
    123 H123      -79.7329   21.4762  -71.4924 H         1 UNK         0.1144 
    124 H124      -77.3649   21.0127  -71.9212 H         1 UNK         0.0793 
    125 H125      -77.3700   21.9570  -73.4032 H         1 UNK         0.0793 
    126 H126      -78.2912   20.4582  -73.3035 H         1 UNK         0.0793 
    127 H127      -78.0258   23.8460  -72.0192 H         1 UNK         0.2896 
@<TRIPOS>BOND
     1    1    2 1    
     2    1   67 1    
     3    1   68 1    
     4    1   69 1    
     5    2    3 2    
     6    2    4 am   BACKBONE|DICT|INTERRES
     7    4    5 1    
     8    4   70 1    
     9    5    6 1    
    10    5   65 1    
    11    5   71 1    
    12    6    7 1    
    13    6   72 1    
    14    6   73 1    
    15    7    8 1    
    16    8    9 1    
    17    8   74 1    
    18    8   75 1    
    19    9   10 ar   
    20    9   14 ar   
    21   10   11 ar   
    22   10   76 1    
    23   11   12 ar   
    24   11   48 1    
    25   12   13 ar   
    26   12   77 1    
    27   13   14 ar   
    28   13   15 1    
    29   14   78 1    
    30   15   16 1    
    31   15   79 1    
    32   15   80 1    
    33   16   17 1    
    34   17   18 1    
    35   17   81 1    
    36   17   82 1    
    37   18   19 1    
    38   18   22 1    
    39   18   83 1    
    40   19   20 am   BACKBONE|DICT|INTERRES
    41   19   21 2    
    42   20   84 1    
    43   20   85 1    
    44   22   23 am   BACKBONE|DICT|INTERRES
    45   22   86 1    
    46   23   24 2    
    47   23   25 1    
    48   25   26 1    
    49   25   27 1    
    50   25   87 1    
    51   26   88 1    
    52   26   89 1    
    53   26   90 1    
    54   27   28 am   BACKBONE|DICT|INTERRES
    55   27   91 1    
    56   28   29 2    
    57   28   30 1    
    58   30   31 1    
    59   30   32 1    
    60   30   92 1    
    61   31   93 1    
    62   31   94 1    
    63   31   95 1    
    64   32   33 am   BACKBONE|DICT|INTERRES
    65   32   96 1    
    66   33   34 2    
    67   33   35 1    
    68   35   36 1    
    69   35   37 1    
    70   35   97 1    
    71   36   98 1    
    72   36   99 1    
    73   36  100 1    
    74   37   38 am   BACKBONE|DICT|INTERRES
    75   37  101 1    
    76   38   39 2    
    77   38   40 1    
    78   40   41 1    
    79   40   42 1    
    80   40  102 1    
    81   41  103 1    
    82   41  104 1    
    83   41  105 1    
    84   42   43 am   BACKBONE|DICT|INTERRES
    85   42  106 1    
    86   43   44 2    
    87   43   45 1    
    88   45   46 1    
    89   45   49 1    
    90   45  107 1    
    91   46   47 1    
    92   46  108 1    
    93   46  109 1    
    94   47   48 1    
    95   48  110 1    
    96   48  111 1    
    97   49   50 am   BACKBONE|DICT|INTERRES
    98   49  112 1    
    99   50   51 2    
   100   50   52 1    
   101   52   53 1    
   102   52   54 1    
   103   52  113 1    
   104   53  114 1    
   105   53  115 1    
   106   53  116 1    
   107   54   55 am   BACKBONE|DICT|INTERRES
   108   54  117 1    
   109   55   56 2    
   110   55   57 1    
   111   57   58 1    
   112   57   59 1    
   113   57  118 1    
   114   58  119 1    
   115   58  120 1    
   116   58  121 1    
   117   59   60 am   BACKBONE|DICT|INTERRES
   118   59  122 1    
   119   60   61 2    
   120   60   62 1    
   121   62   63 1    
   122   62   64 1    
   123   62  123 1    
   124   63  124 1    
   125   63  125 1    
   126   63  126 1    
   127   64   65 am   BACKBONE|DICT|INTERRES
   128   64  127 1    
   129   65   66 2    
@<TRIPOS>SUBSTRUCTURE
     1 UNK         1 GROUP             0       ****    0 ROOT    
