@<TRIPOS>MOLECULE
3R135
127   129    1
SMALL
USER_CHARGES


@<TRIPOS>ATOM
      1 CA        -79.6964   23.5312  -69.9531 C.3       0 UNK        -0.1998 
      2 C         -80.8499   24.2478  -70.6389 C.2       0 UNK         0.4909 
      3 O         -81.9602   23.7181  -70.6853 O.2       0 UNK        -0.5240 
      4 N         -80.5927   25.4498  -71.1718 N.am      1 UNK        -0.4739 
      5 CA        -81.5750   26.2907  -71.8713 C.3       1 UNK         0.0864 
      6 C6        -81.0286   27.7155  -72.1169 C.3       11 UNK        -0.0881 
      7 S7        -80.6896   28.6484  -70.5835 S.3       11 UNK        -0.2682 
      8 C8        -78.8703   28.8508  -70.6250 C.3       11 UNK         0.0289 
      9 C9        -78.3021   29.7867  -71.6991 C.ar      11 UNK        -0.0687 
     10 C10       -79.0556   30.2620  -72.7801 C.ar      11 UNK        -0.0823 
     11 C11       -78.4677   31.0310  -73.7862 C.ar      11 UNK        -0.0830 
     12 C12       -77.1199   31.3812  -73.6852 C.ar      11 UNK        -0.1021 
     13 C13       -76.3591   30.9516  -72.5945 C.ar      11 UNK        -0.0753 
     14 C14       -76.9548   30.1531  -71.6119 C.ar      11 UNK        -0.0933 
     15 C15       -74.8950   31.3517  -72.4852 C.3       11 UNK         0.0166 
     16 S16       -73.7930   30.0122  -73.0341 S.3       11 UNK        -0.2615 
     17 C17       -73.6655   28.9888  -71.5230 C.3       11 UNK        -0.0865 
     18 CA        -72.2082   28.5121  -71.2566 C.3       10 UNK         0.0862 
     19 C         -72.0302   27.8480  -69.8559 C.2       10 UNK         0.5551 
     20 N         -71.1270   26.8889  -69.6929 N.am      10 UNK        -0.7319 
     21 O         -72.6923   28.2289  -68.8933 O.2       10 UNK        -0.5018 
     22 N         -71.6617   27.7442  -72.3898 N.am      10 UNK        -0.4509 
     23 C         -72.1053   26.5567  -72.8199 C.2       10 UNK         0.4899 
     24 O         -72.9738   25.8889  -72.2567 O.2       10 UNK        -0.4839 
     25 CA        -71.5111   26.0817  -74.1484 C.3       9 UNK         0.0222 
     26 CB        -71.7230   24.5760  -74.3931 C.3       9 UNK        -0.1966 
     27 N         -72.1755   26.8287  -75.2087 N.am      9 UNK        -0.4218 
     28 C         -71.6554   27.8390  -75.9136 C.2       9 UNK         0.5020 
     29 O         -70.5171   28.2821  -75.7454 O.2       9 UNK        -0.5274 
     30 CA        -72.5750   28.4219  -77.0074 C.3       8 UNK         0.0270 
     31 CB        -71.8635   29.4313  -77.9327 C.3       8 UNK        -0.1976 
     32 N         -73.2320   27.3599  -77.7839 N.am      8 UNK        -0.4313 
     33 C         -72.6371   26.3824  -78.4881 C.2       8 UNK         0.5041 
     34 O         -71.4261   26.3318  -78.7084 O.2       8 UNK        -0.5577 
     35 CA        -73.5225   25.2337  -79.0035 C.3       7 UNK         0.0284 
     36 CB        -73.1965   23.9363  -78.2432 C.3       7 UNK        -0.1958 
     37 N         -74.9561   25.5073  -78.8772 N.am      7 UNK        -0.4454 
     38 C         -75.6782   26.1733  -79.7872 C.2       7 UNK         0.5089 
     39 O         -75.2179   26.6084  -80.8433 O.2       7 UNK        -0.5125 
     40 CA        -77.1623   26.4121  -79.4578 C.3       6 UNK         0.0408 
     41 CB        -77.9960   25.1638  -79.7832 C.3       6 UNK        -0.1791 
     42 N         -77.4080   26.8218  -78.0712 N.am      6 UNK        -0.4762 
     43 C         -76.9227   27.9382  -77.5042 C.2       6 UNK         0.5007 
     44 O         -76.1302   28.7015  -78.0562 O.2       6 UNK        -0.5032 
     45 CA        -77.3879   28.2363  -76.0667 C.3       5 UNK         0.0783 
     46 C46       -78.8220   28.8281  -76.0466 C.3       11 UNK        -0.0857 
     47 S47       -78.8190   30.5954  -76.5214 S.3       11 UNK        -0.2512 
     48 C48       -79.2966   31.4622  -74.9881 C.3       11 UNK         0.0225 
     49 N         -77.2606   27.0438  -75.2276 N.am      5 UNK        -0.4615 
     50 C         -76.0851   26.5528  -74.8087 C.2       4 UNK         0.5053 
     51 O         -74.9964   27.0644  -75.0649 O.2       4 UNK        -0.5105 
     52 CA        -76.1259   25.2364  -74.0158 C.3       4 UNK         0.0263 
     53 CB        -76.5614   25.4979  -72.5640 C.3       4 UNK        -0.1981 
     54 N         -77.0016   24.2283  -74.6190 N.am      4 UNK        -0.4224 
     55 C         -76.9043   23.7636  -75.8742 C.2       3 UNK         0.4895 
     56 O         -76.0229   24.0917  -76.6665 O.2       3 UNK        -0.5091 
     57 CA        -78.0132   22.8085  -76.3468 C.3       3 UNK         0.0250 
     58 CB        -77.6367   21.3526  -76.0306 C.3       3 UNK        -0.1996 
     59 N         -79.3390   23.1049  -75.7915 N.am      3 UNK        -0.4254 
     60 C         -79.9843   24.2780  -75.8794 C.2       2 UNK         0.5004 
     61 O         -79.5147   25.2871  -76.4111 O.2       2 UNK        -0.5226 
     62 CA        -81.3552   24.3586  -75.2007 C.3       2 UNK         0.0269 
     63 CB        -82.0962   23.0079  -75.0993 C.3       2 UNK        -0.1926 
     64 N         -81.1568   24.9258  -73.8709 N.am      2 UNK        -0.4687 
     65 C         -82.0373   25.6929  -73.2185 C.2       1 UNK         0.5165 
     66 O         -83.1609   25.9601  -73.6474 O.2       1 UNK        -0.5079 
     67 H67       -78.7739   24.1103  -69.9914 H         1 UNK         0.0900 
     68 H68       -79.5136   22.5701  -70.4328 H         1 UNK         0.0900 
     69 H69       -79.9384   23.3488  -68.9064 H         1 UNK         0.0900 
     70 H70       -79.6747   25.8528  -71.0596 H         1 UNK         0.2959 
     71 H71       -82.4621   26.3647  -71.2379 H         1 UNK         0.1079 
     72 H72       -80.1260   27.6663  -72.7289 H         1 UNK         0.0837 
     73 H73       -81.7508   28.3036  -72.6878 H         1 UNK         0.0837 
     74 H74       -78.5624   29.2201  -69.6456 H         1 UNK         0.0685 
     75 H75       -78.4102   27.8684  -70.7383 H         1 UNK         0.0685 
     76 H76       -80.1027   30.0235  -72.8710 H         1 UNK         0.1434 
     77 H77       -76.6635   31.9801  -74.4617 H         1 UNK         0.1329 
     78 H78       -76.3643   29.8056  -70.7763 H         1 UNK         0.1335 
     79 H79       -74.7017   32.2290  -73.1043 H         1 UNK         0.0680 
     80 H80       -74.6571   31.6506  -71.4634 H         1 UNK         0.0680 
     81 H81       -74.3430   28.1390  -71.6160 H         1 UNK         0.1032 
     82 H82       -74.0246   29.5692  -70.6725 H         1 UNK         0.1032 
     83 H83       -71.5896   29.4085  -71.2005 H         1 UNK         0.0461 
     84 H84       -70.5751   26.5730  -70.4741 H         1 UNK         0.3453 
     85 H85       -71.0069   26.4701  -68.7842 H         1 UNK         0.3453 
     86 H86       -70.9560   28.2172  -72.9367 H         1 UNK         0.2984 
     87 H87       -70.4373   26.2799  -74.1423 H         1 UNK         0.0554 
     88 H88       -72.7802   24.3130  -74.4385 H         1 UNK         0.0847 
     89 H89       -71.2723   23.9844  -73.5953 H         1 UNK         0.0847 
     90 H90       -71.2633   24.2620  -75.3304 H         1 UNK         0.0847 
     91 H91       -73.1754   26.6643  -75.3088 H         1 UNK         0.3141 
     92 H92       -73.3705   28.9565  -76.4851 H         1 UNK         0.0743 
     93 H93       -71.0204   28.9794  -78.4561 H         1 UNK         0.0784 
     94 H94       -72.5480   29.8319  -78.6804 H         1 UNK         0.0784 
     95 H95       -71.4762   30.2757  -77.3615 H         1 UNK         0.0784 
     96 H96       -74.2386   27.3182  -77.6877 H         1 UNK         0.3213 
     97 H97       -73.2779   25.0785  -80.0566 H         1 UNK         0.0855 
     98 H98       -73.3644   24.0452  -77.1709 H         1 UNK         0.0814 
     99 H99       -72.1519   23.6541  -78.3806 H         1 UNK         0.0814 
    100 H100      -73.8065   23.1042  -78.5949 H         1 UNK         0.0814 
    101 H101      -75.4189   25.1370  -78.0472 H         1 UNK         0.3105 
    102 H102      -77.5136   27.2248  -80.0969 H         1 UNK         0.0547 
    103 H103      -77.9069   24.9019  -80.8383 H         1 UNK         0.0837 
    104 H104      -77.6663   24.3001  -79.2074 H         1 UNK         0.0837 
    105 H105      -79.0544   25.3234  -79.5764 H         1 UNK         0.0837 
    106 H106      -78.0476   26.2474  -77.5303 H         1 UNK         0.3020 
    107 H107      -76.7072   28.9853  -75.6522 H         1 UNK         0.1245 
    108 H108      -79.2618   28.7231  -75.0556 H         1 UNK         0.0781 
    109 H109      -79.4915   28.2806  -76.7132 H         1 UNK         0.0781 
    110 H110      -80.3597   31.2947  -74.8078 H         1 UNK         0.0836 
    111 H111      -79.1814   32.5365  -75.1389 H         1 UNK         0.0836 
    112 H112      -78.1031   26.5089  -75.0709 H         1 UNK         0.3022 
    113 H113      -75.1143   24.8267  -74.0012 H         1 UNK         0.0747 
    114 H114      -76.5169   24.5879  -71.9656 H         1 UNK         0.0793 
    115 H115      -75.9014   26.2252  -72.0889 H         1 UNK         0.0793 
    116 H116      -77.5759   25.8932  -72.5071 H         1 UNK         0.0793 
    117 H117      -77.7474   23.8698  -74.0432 H         1 UNK         0.3047 
    118 H118      -78.0897   22.9079  -77.4300 H         1 UNK         0.0822 
    119 H119      -78.3583   20.6541  -76.4549 H         1 UNK         0.0807 
    120 H120      -77.5838   21.1710  -74.9564 H         1 UNK         0.0807 
    121 H121      -76.6618   21.1018  -76.4519 H         1 UNK         0.0807 
    122 H122      -79.8106   22.3415  -75.3281 H         1 UNK         0.2946 
    123 H123      -81.9588   25.0403  -75.8050 H         1 UNK         0.1144 
    124 H124      -82.1639   22.5197  -76.0726 H         1 UNK         0.0793 
    125 H125      -83.1170   23.1528  -74.7449 H         1 UNK         0.0793 
    126 H126      -81.6093   22.3183  -74.4090 H         1 UNK         0.0793 
    127 H127      -80.2556   24.7700  -73.4446 H         1 UNK         0.2896 
@<TRIPOS>BOND
     1    1    2 1    
     2    1   67 1    
     3    1   68 1    
     4    1   69 1    
     5    2    3 2    
     6    2    4 am   BACKBONE|DICT|INTERRES
     7    4    5 1    
     8    4   70 1    
     9    5    6 1    
    10    5   65 1    
    11    5   71 1    
    12    6    7 1    
    13    6   72 1    
    14    6   73 1    
    15    7    8 1    
    16    8    9 1    
    17    8   74 1    
    18    8   75 1    
    19    9   10 ar   
    20    9   14 ar   
    21   10   11 ar   
    22   10   76 1    
    23   11   12 ar   
    24   11   48 1    
    25   12   13 ar   
    26   12   77 1    
    27   13   14 ar   
    28   13   15 1    
    29   14   78 1    
    30   15   16 1    
    31   15   79 1    
    32   15   80 1    
    33   16   17 1    
    34   17   18 1    
    35   17   81 1    
    36   17   82 1    
    37   18   19 1    
    38   18   22 1    
    39   18   83 1    
    40   19   20 am   BACKBONE|DICT|INTERRES
    41   19   21 2    
    42   20   84 1    
    43   20   85 1    
    44   22   23 am   BACKBONE|DICT|INTERRES
    45   22   86 1    
    46   23   24 2    
    47   23   25 1    
    48   25   26 1    
    49   25   27 1    
    50   25   87 1    
    51   26   88 1    
    52   26   89 1    
    53   26   90 1    
    54   27   28 am   BACKBONE|DICT|INTERRES
    55   27   91 1    
    56   28   29 2    
    57   28   30 1    
    58   30   31 1    
    59   30   32 1    
    60   30   92 1    
    61   31   93 1    
    62   31   94 1    
    63   31   95 1    
    64   32   33 am   BACKBONE|DICT|INTERRES
    65   32   96 1    
    66   33   34 2    
    67   33   35 1    
    68   35   36 1    
    69   35   37 1    
    70   35   97 1    
    71   36   98 1    
    72   36   99 1    
    73   36  100 1    
    74   37   38 am   BACKBONE|DICT|INTERRES
    75   37  101 1    
    76   38   39 2    
    77   38   40 1    
    78   40   41 1    
    79   40   42 1    
    80   40  102 1    
    81   41  103 1    
    82   41  104 1    
    83   41  105 1    
    84   42   43 am   BACKBONE|DICT|INTERRES
    85   42  106 1    
    86   43   44 2    
    87   43   45 1    
    88   45   46 1    
    89   45   49 1    
    90   45  107 1    
    91   46   47 1    
    92   46  108 1    
    93   46  109 1    
    94   47   48 1    
    95   48  110 1    
    96   48  111 1    
    97   49   50 am   BACKBONE|DICT|INTERRES
    98   49  112 1    
    99   50   51 2    
   100   50   52 1    
   101   52   53 1    
   102   52   54 1    
   103   52  113 1    
   104   53  114 1    
   105   53  115 1    
   106   53  116 1    
   107   54   55 am   BACKBONE|DICT|INTERRES
   108   54  117 1    
   109   55   56 2    
   110   55   57 1    
   111   57   58 1    
   112   57   59 1    
   113   57  118 1    
   114   58  119 1    
   115   58  120 1    
   116   58  121 1    
   117   59   60 am   BACKBONE|DICT|INTERRES
   118   59  122 1    
   119   60   61 2    
   120   60   62 1    
   121   62   63 1    
   122   62   64 1    
   123   62  123 1    
   124   63  124 1    
   125   63  125 1    
   126   63  126 1    
   127   64   65 am   BACKBONE|DICT|INTERRES
   128   64  127 1    
   129   65   66 2    
@<TRIPOS>SUBSTRUCTURE
     1 UNK         1 GROUP             0       ****    0 ROOT    
