@<TRIPOS>MOLECULE
3R135
127   129    1
SMALL
USER_CHARGES


@<TRIPOS>ATOM
      1 CA        -84.8881   30.0147  -75.3047 C.3       0 UNK        -0.1998 
      2 C         -83.5268   29.5089  -75.7591 C.2       0 UNK         0.4909 
      3 O         -83.2493   29.4994  -76.9590 O.2       0 UNK        -0.5240 
      4 N         -82.6787   29.1019  -74.8073 N.am      1 UNK        -0.4739 
      5 CA        -81.3503   28.5290  -75.0375 C.3       1 UNK         0.0864 
      6 C6        -80.3092   29.0770  -74.0216 C.3       11 UNK        -0.0881 
      7 S7        -80.7566   28.8503  -72.2614 S.3       11 UNK        -0.2682 
      8 C8        -79.4502   29.8116  -71.4300 C.3       11 UNK         0.0289 
      9 C9        -78.0524   29.3749  -71.8482 C.ar      11 UNK        -0.0687 
     10 C10       -77.6201   28.0655  -71.6114 C.ar      11 UNK        -0.0823 
     11 C11       -76.3520   27.6540  -72.0295 C.ar      11 UNK        -0.0830 
     12 C12       -75.5076   28.5642  -72.6672 C.ar      11 UNK        -0.1021 
     13 C13       -75.9186   29.8804  -72.8899 C.ar      11 UNK        -0.0753 
     14 C14       -77.1960   30.2786  -72.4864 C.ar      11 UNK        -0.0933 
     15 C15       -74.9853   30.8634  -73.5816 C.3       11 UNK         0.0166 
     16 S16       -74.2600   32.0693  -72.4282 S.3       11 UNK        -0.2615 
     17 C17       -73.3150   31.0099  -71.2792 C.3       11 UNK        -0.0865 
     18 CA        -71.7879   31.0415  -71.5375 C.3       10 UNK         0.0862 
     19 C         -71.0161   30.4275  -70.3310 C.2       10 UNK         0.5551 
     20 N         -70.3160   29.3094  -70.4840 N.am      10 UNK        -0.7319 
     21 O         -71.0488   30.9835  -69.2360 O.2       10 UNK        -0.5018 
     22 N         -71.4255   30.4548  -72.8422 N.am      10 UNK        -0.4509 
     23 C         -70.2839   30.7227  -73.4857 C.2       10 UNK         0.4899 
     24 O         -69.4883   31.5891  -73.1205 O.2       10 UNK        -0.4839 
     25 CA        -69.9289   29.8859  -74.7288 C.3       9 UNK         0.0222 
     26 CB        -69.1166   28.6393  -74.3250 C.3       9 UNK        -0.1966 
     27 N         -71.0343   29.5236  -75.6286 N.am      9 UNK        -0.4218 
     28 C         -72.0749   28.7069  -75.4149 C.2       9 UNK         0.5020 
     29 O         -72.3566   28.2096  -74.3222 O.2       9 UNK        -0.5274 
     30 CA        -72.8931   28.3576  -76.6661 C.3       8 UNK         0.0270 
     31 CB        -72.1696   27.2709  -77.4802 C.3       8 UNK        -0.1976 
     32 N         -74.2293   27.8652  -76.3322 N.am      8 UNK        -0.4313 
     33 C         -75.3492   28.5973  -76.4119 C.2       8 UNK         0.5041 
     34 O         -75.3513   29.8009  -76.6792 O.2       8 UNK        -0.5577 
     35 CA        -76.6932   27.8617  -76.1991 C.3       7 UNK         0.0284 
     36 CB        -77.8869   28.6223  -76.8108 C.3       7 UNK        -0.1958 
     37 N         -76.6826   26.4747  -76.6803 N.am      7 UNK        -0.4454 
     38 C         -76.3487   26.0310  -77.9035 C.2       7 UNK         0.5089 
     39 O         -76.1162   26.7687  -78.8626 O.2       7 UNK        -0.5125 
     40 CA        -76.2249   24.5012  -78.0778 C.3       6 UNK         0.0408 
     41 CB        -75.1695   24.1164  -79.1351 C.3       6 UNK        -0.1791 
     42 N         -75.9764   23.7775  -76.8233 N.am      6 UNK        -0.4762 
     43 C         -74.9612   23.9432  -75.9580 C.2       6 UNK         0.5007 
     44 O         -74.0319   24.7298  -76.1440 O.2       6 UNK        -0.5032 
     45 CA        -75.0226   23.1499  -74.6330 C.3       5 UNK         0.0783 
     46 C46       -74.9474   24.0865  -73.3992 C.3       11 UNK        -0.0857 
     47 S47       -76.3774   25.2106  -73.2521 S.3       11 UNK        -0.2512 
     48 C48       -75.8950   26.2216  -71.8242 C.3       11 UNK         0.0225 
     49 N         -76.2125   22.2936  -74.5723 N.am      5 UNK        -0.4615 
     50 C         -76.2247   20.9748  -74.7957 C.2       4 UNK         0.5053 
     51 O         -75.2167   20.3045  -75.0190 O.2       4 UNK        -0.5105 
     52 CA        -77.6024   20.2887  -74.7887 C.3       4 UNK         0.0263 
     53 CB        -77.9862   19.8709  -73.3599 C.3       4 UNK        -0.1981 
     54 N         -78.6744   21.1130  -75.3587 N.am      4 UNK        -0.4224 
     55 C         -78.7295   21.5354  -76.6313 C.2       3 UNK         0.4895 
     56 O         -77.8665   21.2865  -77.4720 O.2       3 UNK        -0.5091 
     57 CA        -79.9359   22.3984  -77.0389 C.3       3 UNK         0.0250 
     58 CB        -81.0121   21.5309  -77.7110 C.3       3 UNK        -0.1996 
     59 N         -80.5359   23.1377  -75.9246 N.am      3 UNK        -0.4254 
     60 C         -79.9577   24.1740  -75.3035 C.2       2 UNK         0.5004 
     61 O         -78.8341   24.6004  -75.5793 O.2       2 UNK        -0.5226 
     62 CA        -80.7551   24.8072  -74.1533 C.3       2 UNK         0.0269 
     63 CB        -80.1909   24.3708  -72.7919 C.3       2 UNK        -0.1926 
     64 N         -80.7475   26.2674  -74.2321 N.am      2 UNK        -0.4687 
     65 C         -81.4580   26.9871  -75.1106 C.2       1 UNK         0.5165 
     66 O         -82.1975   26.4722  -75.9524 O.2       1 UNK        -0.5079 
     67 H67       -85.0312   31.0465  -75.6248 H         1 UNK         0.0900 
     68 H68       -84.9960   29.9783  -74.2208 H         1 UNK         0.0900 
     69 H69       -85.6792   29.4082  -75.7446 H         1 UNK         0.0900 
     70 H70       -82.9682   29.1230  -73.8392 H         1 UNK         0.2959 
     71 H71       -81.0047   28.8359  -76.0269 H         1 UNK         0.1079 
     72 H72       -80.1766   30.1463  -74.1946 H         1 UNK         0.0837 
     73 H73       -79.3289   28.6331  -74.2039 H         1 UNK         0.0837 
     74 H74       -79.5544   29.6927  -70.3508 H         1 UNK         0.0685 
     75 H75       -79.6064   30.8708  -71.6401 H         1 UNK         0.0685 
     76 H76       -78.2820   27.3612  -71.1261 H         1 UNK         0.1434 
     77 H77       -74.5293   28.2424  -72.9951 H         1 UNK         0.1329 
     78 H78       -77.5189   31.2942  -72.6700 H         1 UNK         0.1335 
     79 H79       -74.1811   30.3384  -74.0962 H         1 UNK         0.0680 
     80 H80       -75.5375   31.4021  -74.3530 H         1 UNK         0.0680 
     81 H81       -73.6798   29.9840  -71.2985 H         1 UNK         0.1032 
     82 H82       -73.5380   31.3769  -70.2753 H         1 UNK         0.1032 
     83 H83       -71.4950   32.0932  -71.5599 H         1 UNK         0.0461 
     84 H84       -70.2888   28.8427  -71.3757 H         1 UNK         0.3453 
     85 H85       -69.8182   28.9261  -69.6960 H         1 UNK         0.3453 
     86 H86       -71.9976   29.6910  -73.1911 H         1 UNK         0.2984 
     87 H87       -69.2705   30.5127  -75.3326 H         1 UNK         0.0554 
     88 H88       -68.7468   28.1066  -75.2011 H         1 UNK         0.0847 
     89 H89       -69.7081   27.9393  -73.7343 H         1 UNK         0.0847 
     90 H90       -68.2479   28.9155  -73.7256 H         1 UNK         0.0847 
     91 H91       -70.9408   29.9007  -76.5621 H         1 UNK         0.3141 
     92 H92       -72.9724   29.2514  -77.2887 H         1 UNK         0.0743 
     93 H93       -72.0017   26.3694  -76.8894 H         1 UNK         0.0784 
     94 H94       -72.7452   26.9880  -78.3622 H         1 UNK         0.0784 
     95 H95       -71.1955   27.6176  -77.8273 H         1 UNK         0.0784 
     96 H96       -74.2930   26.8835  -76.0846 H         1 UNK         0.3213 
     97 H97       -76.8496   27.8081  -75.1209 H         1 UNK         0.0855 
     98 H98       -77.7407   28.8090  -77.8753 H         1 UNK         0.0814 
     99 H99       -78.0249   29.5891  -76.3251 H         1 UNK         0.0814 
    100 H100      -78.8118   28.0590  -76.6967 H         1 UNK         0.0814 
    101 H101      -76.9320   25.7715  -75.9929 H         1 UNK         0.3105 
    102 H102      -77.1964   24.1583  -78.4359 H         1 UNK         0.0547 
    103 H103      -75.4219   24.5313  -80.1116 H         1 UNK         0.0837 
    104 H104      -74.1791   24.4882  -78.8705 H         1 UNK         0.0837 
    105 H105      -75.1029   23.0350  -79.2530 H         1 UNK         0.0837 
    106 H106      -76.6856   23.1002  -76.5770 H         1 UNK         0.3020 
    107 H107      -74.1242   22.5286  -74.6222 H         1 UNK         0.1245 
    108 H108      -74.8857   23.4892  -72.4882 H         1 UNK         0.0781 
    109 H109      -74.0317   24.6807  -73.4290 H         1 UNK         0.0781 
    110 H110      -76.3326   25.8022  -70.9171 H         1 UNK         0.0836 
    111 H111      -74.8129   26.1952  -71.6864 H         1 UNK         0.0836 
    112 H112      -77.0838   22.7706  -74.3848 H         1 UNK         0.3022 
    113 H113      -77.5210   19.3863  -75.3985 H         1 UNK         0.0747 
    114 H114      -78.9148   19.2998  -73.3487 H         1 UNK         0.0793 
    115 H115      -77.2148   19.2384  -72.9181 H         1 UNK         0.0793 
    116 H116      -78.1137   20.7342  -72.7054 H         1 UNK         0.0793 
    117 H117      -79.4344   21.3612  -74.7428 H         1 UNK         0.3047 
    118 H118      -79.5802   23.1268  -77.7711 H         1 UNK         0.0822 
    119 H119      -81.8364   22.1390  -78.0844 H         1 UNK         0.0807 
    120 H120      -81.4239   20.7905  -77.0239 H         1 UNK         0.0807 
    121 H121      -80.6003   20.9896  -78.5642 H         1 UNK         0.0807 
    122 H122      -81.4606   22.8484  -75.6384 H         1 UNK         0.2946 
    123 H123      -81.7926   24.4703  -74.2147 H         1 UNK         0.1144 
    124 H124      -80.7987   24.7534  -71.9717 H         1 UNK         0.0793 
    125 H125      -79.1723   24.7273  -72.6436 H         1 UNK         0.0793 
    126 H126      -80.1735   23.2839  -72.7018 H         1 UNK         0.0793 
    127 H127      -80.1665   26.7573  -73.5660 H         1 UNK         0.2896 
@<TRIPOS>BOND
     1    1    2 1    
     2    1   67 1    
     3    1   68 1    
     4    1   69 1    
     5    2    3 2    
     6    2    4 am   BACKBONE|DICT|INTERRES
     7    4    5 1    
     8    4   70 1    
     9    5    6 1    
    10    5   65 1    
    11    5   71 1    
    12    6    7 1    
    13    6   72 1    
    14    6   73 1    
    15    7    8 1    
    16    8    9 1    
    17    8   74 1    
    18    8   75 1    
    19    9   10 ar   
    20    9   14 ar   
    21   10   11 ar   
    22   10   76 1    
    23   11   12 ar   
    24   11   48 1    
    25   12   13 ar   
    26   12   77 1    
    27   13   14 ar   
    28   13   15 1    
    29   14   78 1    
    30   15   16 1    
    31   15   79 1    
    32   15   80 1    
    33   16   17 1    
    34   17   18 1    
    35   17   81 1    
    36   17   82 1    
    37   18   19 1    
    38   18   22 1    
    39   18   83 1    
    40   19   20 am   BACKBONE|DICT|INTERRES
    41   19   21 2    
    42   20   84 1    
    43   20   85 1    
    44   22   23 am   BACKBONE|DICT|INTERRES
    45   22   86 1    
    46   23   24 2    
    47   23   25 1    
    48   25   26 1    
    49   25   27 1    
    50   25   87 1    
    51   26   88 1    
    52   26   89 1    
    53   26   90 1    
    54   27   28 am   BACKBONE|DICT|INTERRES
    55   27   91 1    
    56   28   29 2    
    57   28   30 1    
    58   30   31 1    
    59   30   32 1    
    60   30   92 1    
    61   31   93 1    
    62   31   94 1    
    63   31   95 1    
    64   32   33 am   BACKBONE|DICT|INTERRES
    65   32   96 1    
    66   33   34 2    
    67   33   35 1    
    68   35   36 1    
    69   35   37 1    
    70   35   97 1    
    71   36   98 1    
    72   36   99 1    
    73   36  100 1    
    74   37   38 am   BACKBONE|DICT|INTERRES
    75   37  101 1    
    76   38   39 2    
    77   38   40 1    
    78   40   41 1    
    79   40   42 1    
    80   40  102 1    
    81   41  103 1    
    82   41  104 1    
    83   41  105 1    
    84   42   43 am   BACKBONE|DICT|INTERRES
    85   42  106 1    
    86   43   44 2    
    87   43   45 1    
    88   45   46 1    
    89   45   49 1    
    90   45  107 1    
    91   46   47 1    
    92   46  108 1    
    93   46  109 1    
    94   47   48 1    
    95   48  110 1    
    96   48  111 1    
    97   49   50 am   BACKBONE|DICT|INTERRES
    98   49  112 1    
    99   50   51 2    
   100   50   52 1    
   101   52   53 1    
   102   52   54 1    
   103   52  113 1    
   104   53  114 1    
   105   53  115 1    
   106   53  116 1    
   107   54   55 am   BACKBONE|DICT|INTERRES
   108   54  117 1    
   109   55   56 2    
   110   55   57 1    
   111   57   58 1    
   112   57   59 1    
   113   57  118 1    
   114   58  119 1    
   115   58  120 1    
   116   58  121 1    
   117   59   60 am   BACKBONE|DICT|INTERRES
   118   59  122 1    
   119   60   61 2    
   120   60   62 1    
   121   62   63 1    
   122   62   64 1    
   123   62  123 1    
   124   63  124 1    
   125   63  125 1    
   126   63  126 1    
   127   64   65 am   BACKBONE|DICT|INTERRES
   128   64  127 1    
   129   65   66 2    
@<TRIPOS>SUBSTRUCTURE
     1 UNK         1 GROUP             0       ****    0 ROOT    
