@<TRIPOS>MOLECULE
3R135
127   129    1
SMALL
USER_CHARGES


@<TRIPOS>ATOM
      1 CA        -84.5496   26.2975  -70.4230 C.3       0 UNK        -0.1998 
      2 C         -84.4936   26.6993  -71.8893 C.2       0 UNK         0.4909 
      3 O         -85.1927   26.1093  -72.7140 O.2       0 UNK        -0.5240 
      4 N         -83.6760   27.7062  -72.2181 N.am      1 UNK        -0.4739 
      5 CA        -83.4218   28.1691  -73.5850 C.3       1 UNK         0.0864 
      6 C6        -82.7952   29.5930  -73.6059 C.3       11 UNK        -0.0881 
      7 S7        -81.3337   29.8050  -72.5228 S.3       11 UNK        -0.2682 
      8 C8        -79.9629   29.5595  -73.6997 C.3       11 UNK         0.0289 
      9 C9        -78.6981   29.0889  -72.9954 C.ar      11 UNK        -0.0687 
     10 C10       -78.6779   27.8494  -72.3498 C.ar      11 UNK        -0.0823 
     11 C11       -77.5258   27.4025  -71.6981 C.ar      11 UNK        -0.0830 
     12 C12       -76.3701   28.1900  -71.7280 C.ar      11 UNK        -0.1021 
     13 C13       -76.3709   29.4293  -72.3794 C.ar      11 UNK        -0.0753 
     14 C14       -77.5445   29.8773  -72.9986 C.ar      11 UNK        -0.0933 
     15 C15       -75.1201   30.3022  -72.3646 C.3       11 UNK         0.0166 
     16 S16       -74.6811   30.9405  -74.0145 S.3       11 UNK        -0.2615 
     17 C17       -73.2987   32.0611  -73.6043 C.3       11 UNK        -0.0865 
     18 CA        -71.9609   31.6556  -74.2790 C.3       10 UNK         0.0862 
     19 C         -70.8855   32.7498  -74.0609 C.2       10 UNK         0.5551 
     20 N         -70.8510   33.7637  -74.9141 N.am      10 UNK        -0.7319 
     21 O         -70.1057   32.7059  -73.1100 O.2       10 UNK        -0.5018 
     22 N         -71.4639   30.3637  -73.7880 N.am      10 UNK        -0.4509 
     23 C         -71.5203   29.2045  -74.4503 C.2       10 UNK         0.4899 
     24 O         -72.0255   29.0763  -75.5673 O.2       10 UNK        -0.4839 
     25 CA        -70.8777   27.9952  -73.7495 C.3       9 UNK         0.0222 
     26 CB        -71.3928   27.8222  -72.3063 C.3       9 UNK        -0.1966 
     27 N         -71.1780   26.7809  -74.5065 N.am      9 UNK        -0.4218 
     28 C         -70.2798   25.9883  -75.1025 C.2       9 UNK         0.5020 
     29 O         -69.0602   26.1423  -75.0151 O.2       9 UNK        -0.5274 
     30 CA        -70.8236   24.8144  -75.9361 C.3       8 UNK         0.0270 
     31 CB        -71.0514   23.5813  -75.0469 C.3       8 UNK        -0.1976 
     32 N         -72.0572   25.1267  -76.6635 N.am      8 UNK        -0.4313 
     33 C         -72.1316   25.9509  -77.7198 C.2       8 UNK         0.5041 
     34 O         -71.1623   26.5448  -78.1940 O.2       8 UNK        -0.5577 
     35 CA        -73.5111   26.1306  -78.3725 C.3       7 UNK         0.0284 
     36 CB        -73.8420   24.9393  -79.2874 C.3       7 UNK        -0.1958 
     37 N         -74.5550   26.2742  -77.3589 N.am      7 UNK        -0.4454 
     38 C         -75.0645   27.4432  -76.9447 C.2       7 UNK         0.5089 
     39 O         -74.8086   28.5261  -77.4718 O.2       7 UNK        -0.5125 
     40 CA        -76.0429   27.4045  -75.7541 C.3       6 UNK         0.0408 
     41 CB        -77.4848   27.6505  -76.2280 C.3       6 UNK        -0.1791 
     42 N         -75.9863   26.1461  -75.0044 N.am      6 UNK        -0.4762 
     43 C         -74.9831   25.8063  -74.1810 C.2       6 UNK         0.5007 
     44 O         -74.0056   26.5216  -73.9737 O.2       6 UNK        -0.5032 
     45 CA        -75.0237   24.4068  -73.5328 C.3       5 UNK         0.0783 
     46 C46       -75.5767   24.4497  -72.0885 C.3       11 UNK        -0.0857 
     47 S47       -77.3909   24.6382  -71.9891 S.3       11 UNK        -0.2512 
     48 C48       -77.5640   26.0973  -70.9164 C.3       11 UNK         0.0225 
     49 N         -75.6943   23.3988  -74.3598 N.am      5 UNK        -0.4615 
     50 C         -75.2952   23.0198  -75.5802 C.2       4 UNK         0.5053 
     51 O         -74.2809   23.4558  -76.1253 O.2       4 UNK        -0.5105 
     52 CA        -76.2050   22.0408  -76.3454 C.3       4 UNK         0.0263 
     53 CB        -75.7617   20.5922  -76.0894 C.3       4 UNK        -0.1981 
     54 N         -77.6389   22.1768  -76.0463 N.am      4 UNK        -0.4224 
     55 C         -78.3469   23.3063  -76.1886 C.2       3 UNK         0.4895 
     56 O         -77.8518   24.3782  -76.5501 O.2       3 UNK        -0.5091 
     57 CA        -79.8437   23.2436  -75.8509 C.3       3 UNK         0.0250 
     58 CB        -80.0685   22.9779  -74.3484 C.3       3 UNK        -0.1996 
     59 N         -80.4166   24.5309  -76.2277 N.am      3 UNK        -0.4254 
     60 C         -81.7046   24.8760  -76.2878 C.2       2 UNK         0.5004 
     61 O         -82.6471   24.1088  -76.0781 O.2       2 UNK        -0.5226 
     62 CA        -81.9759   26.3443  -76.6660 C.3       2 UNK         0.0269 
     63 CB        -82.6478   26.4342  -78.0465 C.3       2 UNK        -0.1926 
     64 N         -82.7853   27.0786  -75.6861 N.am      2 UNK        -0.4687 
     65 C         -82.5535   27.1599  -74.3665 C.2       1 UNK         0.5165 
     66 O         -81.6609   26.5432  -73.7799 O.2       1 UNK        -0.5079 
     67 H67       -83.8923   26.9112  -69.8072 H         1 UNK         0.0900 
     68 H68       -84.2475   25.2568  -70.3080 H         1 UNK         0.0900 
     69 H69       -85.5655   26.4022  -70.0432 H         1 UNK         0.0900 
     70 H70       -83.0955   28.1354  -71.5110 H         1 UNK         0.2959 
     71 H71       -84.3881   28.2277  -74.0918 H         1 UNK         0.1079 
     72 H72       -82.5470   29.8992  -74.6242 H         1 UNK         0.0837 
     73 H73       -83.5457   30.3101  -73.2698 H         1 UNK         0.0837 
     74 H74       -79.7886   30.4919  -74.2387 H         1 UNK         0.0685 
     75 H75       -80.2334   28.8184  -74.4511 H         1 UNK         0.0685 
     76 H76       -79.5717   27.2400  -72.3376 H         1 UNK         0.1434 
     77 H77       -75.4753   27.8467  -71.2272 H         1 UNK         0.1329 
     78 H78       -77.5548   30.8402  -73.4905 H         1 UNK         0.1335 
     79 H79       -74.2667   29.7471  -71.9716 H         1 UNK         0.0680 
     80 H80       -75.2919   31.1399  -71.6875 H         1 UNK         0.0680 
     81 H81       -73.5954   33.0619  -73.9242 H         1 UNK         0.1032 
     82 H82       -73.1740   32.1208  -72.5215 H         1 UNK         0.1032 
     83 H83       -72.1284   31.5904  -75.3562 H         1 UNK         0.0461 
     84 H84       -70.1666   34.4922  -74.7822 H         1 UNK         0.3453 
     85 H85       -71.4902   33.8130  -75.6925 H         1 UNK         0.3453 
     86 H86       -70.9675   30.4101  -72.9090 H         1 UNK         0.2984 
     87 H87       -69.8007   28.1705  -73.7173 H         1 UNK         0.0554 
     88 H88       -71.0268   26.8954  -71.8644 H         1 UNK         0.0847 
     89 H89       -72.4822   27.8027  -72.2642 H         1 UNK         0.0847 
     90 H90       -71.0569   28.6348  -71.6620 H         1 UNK         0.0847 
     91 H91       -72.1697   26.6103  -74.6500 H         1 UNK         0.3141 
     92 H92       -70.0615   24.5576  -76.6751 H         1 UNK         0.0743 
     93 H93       -70.1283   23.2877  -74.5452 H         1 UNK         0.0784 
     94 H94       -71.7945   23.7732  -74.2736 H         1 UNK         0.0784 
     95 H95       -71.3890   22.7254  -75.6319 H         1 UNK         0.0784 
     96 H96       -72.8888   24.6058  -76.3919 H         1 UNK         0.3213 
     97 H97       -73.4696   27.0272  -78.9950 H         1 UNK         0.0855 
     98 H98       -73.8879   23.9990  -78.7374 H         1 UNK         0.0814 
     99 H99       -73.0849   24.8249  -80.0642 H         1 UNK         0.0814 
    100 H100      -74.8003   25.0803  -79.7877 H         1 UNK         0.0814 
    101 H101      -74.8325   25.4341  -76.8675 H         1 UNK         0.3105 
    102 H102      -75.7685   28.2134  -75.0741 H         1 UNK         0.0547 
    103 H103      -77.7733   26.9615  -77.0218 H         1 UNK         0.0837 
    104 H104      -78.1973   27.5418  -75.4111 H         1 UNK         0.0837 
    105 H105      -77.5925   28.6616  -76.6219 H         1 UNK         0.0837 
    106 H106      -76.7260   25.4767  -75.1868 H         1 UNK         0.3020 
    107 H107      -73.9811   24.0926  -73.4569 H         1 UNK         0.1245 
    108 H108      -75.0809   25.2343  -71.5137 H         1 UNK         0.0781 
    109 H109      -75.3223   23.5181  -71.5807 H         1 UNK         0.0781 
    110 H110      -76.8010   26.0859  -70.1366 H         1 UNK         0.0836 
    111 H111      -78.5191   26.0254  -70.3937 H         1 UNK         0.0836 
    112 H112      -76.5518   23.0189  -73.9863 H         1 UNK         0.3022 
    113 H113      -76.0759   22.2535  -77.4087 H         1 UNK         0.0747 
    114 H114      -76.3182   19.8901  -76.7106 H         1 UNK         0.0793 
    115 H115      -74.7043   20.4604  -76.3243 H         1 UNK         0.0793 
    116 H116      -75.9021   20.3045  -75.0466 H         1 UNK         0.0793 
    117 H117      -78.1164   21.3406  -75.7409 H         1 UNK         0.3047 
    118 H118      -80.3059   22.4557  -76.4487 H         1 UNK         0.0822 
    119 H119      -79.5920   22.0520  -74.0252 H         1 UNK         0.0807 
    120 H120      -81.1293   22.8869  -74.1148 H         1 UNK         0.0807 
    121 H121      -79.6677   23.7869  -73.7370 H         1 UNK         0.0807 
    122 H122      -79.7007   25.2082  -76.4644 H         1 UNK         0.2946 
    123 H123      -81.0182   26.8661  -76.7274 H         1 UNK         0.1144 
    124 H124      -82.0584   25.9134  -78.8026 H         1 UNK         0.0793 
    125 H125      -82.7500   27.4687  -78.3748 H         1 UNK         0.0793 
    126 H126      -83.6408   25.9826  -78.0404 H         1 UNK         0.0793 
    127 H127      -83.5540   27.6103  -76.0685 H         1 UNK         0.2896 
@<TRIPOS>BOND
     1    1    2 1    
     2    1   67 1    
     3    1   68 1    
     4    1   69 1    
     5    2    3 2    
     6    2    4 am   BACKBONE|DICT|INTERRES
     7    4    5 1    
     8    4   70 1    
     9    5    6 1    
    10    5   65 1    
    11    5   71 1    
    12    6    7 1    
    13    6   72 1    
    14    6   73 1    
    15    7    8 1    
    16    8    9 1    
    17    8   74 1    
    18    8   75 1    
    19    9   10 ar   
    20    9   14 ar   
    21   10   11 ar   
    22   10   76 1    
    23   11   12 ar   
    24   11   48 1    
    25   12   13 ar   
    26   12   77 1    
    27   13   14 ar   
    28   13   15 1    
    29   14   78 1    
    30   15   16 1    
    31   15   79 1    
    32   15   80 1    
    33   16   17 1    
    34   17   18 1    
    35   17   81 1    
    36   17   82 1    
    37   18   19 1    
    38   18   22 1    
    39   18   83 1    
    40   19   20 am   BACKBONE|DICT|INTERRES
    41   19   21 2    
    42   20   84 1    
    43   20   85 1    
    44   22   23 am   BACKBONE|DICT|INTERRES
    45   22   86 1    
    46   23   24 2    
    47   23   25 1    
    48   25   26 1    
    49   25   27 1    
    50   25   87 1    
    51   26   88 1    
    52   26   89 1    
    53   26   90 1    
    54   27   28 am   BACKBONE|DICT|INTERRES
    55   27   91 1    
    56   28   29 2    
    57   28   30 1    
    58   30   31 1    
    59   30   32 1    
    60   30   92 1    
    61   31   93 1    
    62   31   94 1    
    63   31   95 1    
    64   32   33 am   BACKBONE|DICT|INTERRES
    65   32   96 1    
    66   33   34 2    
    67   33   35 1    
    68   35   36 1    
    69   35   37 1    
    70   35   97 1    
    71   36   98 1    
    72   36   99 1    
    73   36  100 1    
    74   37   38 am   BACKBONE|DICT|INTERRES
    75   37  101 1    
    76   38   39 2    
    77   38   40 1    
    78   40   41 1    
    79   40   42 1    
    80   40  102 1    
    81   41  103 1    
    82   41  104 1    
    83   41  105 1    
    84   42   43 am   BACKBONE|DICT|INTERRES
    85   42  106 1    
    86   43   44 2    
    87   43   45 1    
    88   45   46 1    
    89   45   49 1    
    90   45  107 1    
    91   46   47 1    
    92   46  108 1    
    93   46  109 1    
    94   47   48 1    
    95   48  110 1    
    96   48  111 1    
    97   49   50 am   BACKBONE|DICT|INTERRES
    98   49  112 1    
    99   50   51 2    
   100   50   52 1    
   101   52   53 1    
   102   52   54 1    
   103   52  113 1    
   104   53  114 1    
   105   53  115 1    
   106   53  116 1    
   107   54   55 am   BACKBONE|DICT|INTERRES
   108   54  117 1    
   109   55   56 2    
   110   55   57 1    
   111   57   58 1    
   112   57   59 1    
   113   57  118 1    
   114   58  119 1    
   115   58  120 1    
   116   58  121 1    
   117   59   60 am   BACKBONE|DICT|INTERRES
   118   59  122 1    
   119   60   61 2    
   120   60   62 1    
   121   62   63 1    
   122   62   64 1    
   123   62  123 1    
   124   63  124 1    
   125   63  125 1    
   126   63  126 1    
   127   64   65 am   BACKBONE|DICT|INTERRES
   128   64  127 1    
   129   65   66 2    
@<TRIPOS>SUBSTRUCTURE
     1 UNK         1 GROUP             0       ****    0 ROOT    
