@<TRIPOS>MOLECULE
3R135
127   129    1
SMALL
USER_CHARGES


@<TRIPOS>ATOM
      1 CA        -80.3522   22.2423  -70.8737 C.3       0 UNK        -0.1998 
      2 C         -80.2862   23.5616  -71.6275 C.2       0 UNK         0.4909 
      3 O         -79.3883   23.7328  -72.4506 O.2       0 UNK        -0.5240 
      4 N         -81.2412   24.4649  -71.3509 N.am      1 UNK        -0.4739 
      5 CA        -81.4217   25.8263  -71.8867 C.3       1 UNK         0.0864 
      6 C6        -80.8897   26.9499  -70.9516 C.3       11 UNK        -0.0881 
      7 S7        -79.1453   26.8220  -70.4274 S.3       11 UNK        -0.2682 
      8 C8        -78.6732   28.5752  -70.2666 C.3       11 UNK         0.0289 
      9 C9        -78.1501   29.1730  -71.5679 C.ar      11 UNK        -0.0687 
     10 C10       -79.0204   29.8008  -72.4674 C.ar      11 UNK        -0.0823 
     11 C11       -78.5316   30.3944  -73.6369 C.ar      11 UNK        -0.0830 
     12 C12       -77.1552   30.3971  -73.8735 C.ar      11 UNK        -0.1021 
     13 C13       -76.2844   29.7179  -73.0219 C.ar      11 UNK        -0.0753 
     14 C14       -76.7831   29.1172  -71.8625 C.ar      11 UNK        -0.0933 
     15 C15       -74.8252   29.5726  -73.4143 C.3       11 UNK         0.0166 
     16 S16       -73.7973   30.9400  -72.8021 S.3       11 UNK        -0.2615 
     17 C17       -73.1117   30.2308  -71.2659 C.3       11 UNK        -0.0865 
     18 CA        -71.6477   29.7274  -71.4494 C.3       10 UNK         0.0862 
     19 C         -70.9440   29.4073  -70.0936 C.2       10 UNK         0.5551 
     20 N         -70.0087   28.4664  -70.0437 N.am      10 UNK        -0.7319 
     21 O         -71.2211   30.0409  -69.0778 O.2       10 UNK        -0.5018 
     22 N         -71.5259   28.6721  -72.4756 N.am      10 UNK        -0.4509 
     23 C         -72.0479   27.4405  -72.4113 C.2       10 UNK         0.4899 
     24 O         -72.7054   27.0210  -71.4578 O.2       10 UNK        -0.4839 
     25 CA        -71.8234   26.5465  -73.6431 C.3       9 UNK         0.0222 
     26 CB        -72.3379   25.1100  -73.4351 C.3       9 UNK        -0.1966 
     27 N         -72.4644   27.1087  -74.8330 N.am      9 UNK        -0.4218 
     28 C         -71.9317   28.0289  -75.6483 C.2       9 UNK         0.5020 
     29 O         -70.8497   28.5804  -75.4337 O.2       9 UNK        -0.5274 
     30 CA        -72.7492   28.3717  -76.9122 C.3       8 UNK         0.0270 
     31 CB        -71.9442   29.1579  -77.9683 C.3       8 UNK        -0.1976 
     32 N         -73.3832   27.1802  -77.4939 N.am      8 UNK        -0.4313 
     33 C         -72.7803   26.0901  -77.9925 C.2       8 UNK         0.5041 
     34 O         -71.5671   25.9971  -78.1834 O.2       8 UNK        -0.5577 
     35 CA        -73.6704   24.8681  -78.2884 C.3       7 UNK         0.0284 
     36 CB        -73.5321   23.8337  -77.1592 C.3       7 UNK        -0.1958 
     37 N         -75.0899   25.1904  -78.4642 N.am      7 UNK        -0.4454 
     38 C         -75.6044   25.7739  -79.5555 C.2       7 UNK         0.5089 
     39 O         -74.9389   26.0889  -80.5425 O.2       7 UNK        -0.5125 
     40 CA        -77.1148   26.0697  -79.5382 C.3       6 UNK         0.0408 
     41 CB        -77.9189   24.8127  -79.9051 C.3       6 UNK        -0.1791 
     42 N         -77.5803   26.5937  -78.2515 N.am      6 UNK        -0.4762 
     43 C         -77.2108   27.7737  -77.7319 C.2       6 UNK         0.5007 
     44 O         -76.4648   28.5679  -78.3057 O.2       6 UNK        -0.5032 
     45 CA        -77.7052   28.0973  -76.3096 C.3       5 UNK         0.0783 
     46 C46       -79.1397   28.6956  -76.2934 C.3       11 UNK        -0.0857 
     47 S47       -79.1352   30.5193  -76.3863 S.3       11 UNK        -0.2512 
     48 C48       -79.4930   31.0056  -74.6544 C.3       11 UNK         0.0225 
     49 N         -77.5592   26.9581  -75.3990 N.am      5 UNK        -0.4615 
     50 C         -76.3839   26.4214  -75.0390 C.2       4 UNK         0.5053 
     51 O         -75.2900   26.8601  -75.3911 O.2       4 UNK        -0.5105 
     52 CA        -76.4198   25.1548  -74.1743 C.3       4 UNK         0.0263 
     53 CB        -76.4952   25.5254  -72.6899 C.3       4 UNK        -0.1981 
     54 N         -77.5270   24.2683  -74.5298 N.am      4 UNK        -0.4224 
     55 C         -77.6306   23.6379  -75.7086 C.2       3 UNK         0.4895 
     56 O         -76.7769   23.6927  -76.5944 O.2       3 UNK        -0.5091 
     57 CA        -78.9329   22.8676  -75.9661 C.3       3 UNK         0.0250 
     58 CB        -78.9474   21.5283  -75.2117 C.3       3 UNK        -0.1996 
     59 N         -80.1126   23.6588  -75.6112 N.am      3 UNK        -0.4254 
     60 C         -80.4956   24.7707  -76.2551 C.2       2 UNK         0.5004 
     61 O         -79.9093   25.2332  -77.2331 O.2       2 UNK        -0.5226 
     62 CA        -81.7294   25.5063  -75.7109 C.3       2 UNK         0.0269 
     63 CB        -83.0073   24.9861  -76.3878 C.3       2 UNK        -0.1926 
     64 N         -81.8748   25.4138  -74.2554 N.am      2 UNK        -0.4687 
     65 C         -81.0457   25.9950  -73.3760 C.2       1 UNK         0.5165 
     66 O         -80.0335   26.6125  -73.7073 O.2       1 UNK        -0.5079 
     67 H67       -79.4374   22.0954  -70.3003 H         1 UNK         0.0900 
     68 H68       -81.1949   22.2052  -70.1836 H         1 UNK         0.0900 
     69 H69       -80.4506   21.4147  -71.5757 H         1 UNK         0.0900 
     70 H70       -81.9378   24.2026  -70.6677 H         1 UNK         0.2959 
     71 H71       -82.5047   25.9642  -71.8807 H         1 UNK         0.1079 
     72 H72       -81.0622   27.9230  -71.4115 H         1 UNK         0.0837 
     73 H73       -81.4873   26.9595  -70.0390 H         1 UNK         0.0837 
     74 H74       -79.5192   29.1549  -69.8942 H         1 UNK         0.0685 
     75 H75       -77.9016   28.6515  -69.4991 H         1 UNK         0.0685 
     76 H76       -80.0805   29.8229  -72.2599 H         1 UNK         0.1434 
     77 H77       -76.7662   30.8678  -74.7660 H         1 UNK         0.1329 
     78 H78       -76.1102   28.5979  -71.1942 H         1 UNK         0.1335 
     79 H79       -74.7430   29.5423  -74.5013 H         1 UNK         0.0680 
     80 H80       -74.4497   28.6123  -73.0669 H         1 UNK         0.0680 
     81 H81       -73.1518   31.0206  -70.5138 H         1 UNK         0.1032 
     82 H82       -73.7564   29.4350  -70.8908 H         1 UNK         0.1032 
     83 H83       -71.0752   30.5668  -71.8457 H         1 UNK         0.0461 
     84 H84       -69.5490   28.2710  -69.1683 H         1 UNK         0.3453 
     85 H85       -69.7625   27.9489  -70.8719 H         1 UNK         0.3453 
     86 H86       -71.0267   28.9267  -73.3205 H         1 UNK         0.2984 
     87 H87       -70.7462   26.4879  -73.8127 H         1 UNK         0.0554 
     88 H88       -71.8511   24.6421  -72.5784 H         1 UNK         0.0847 
     89 H89       -72.1325   24.4845  -74.3037 H         1 UNK         0.0847 
     90 H90       -73.4116   25.0879  -73.2497 H         1 UNK         0.0847 
     91 H91       -73.4109   26.7975  -75.0377 H         1 UNK         0.3141 
     92 H92       -73.5665   29.0136  -76.5810 H         1 UNK         0.0743 
     93 H93       -71.5969   30.1092  -77.5633 H         1 UNK         0.0784 
     94 H94       -71.0639   28.6079  -78.3017 H         1 UNK         0.0784 
     95 H95       -72.5533   29.3812  -78.8441 H         1 UNK         0.0784 
     96 H96       -74.3799   27.1094  -77.3242 H         1 UNK         0.3213 
     97 H97       -73.3048   24.4148  -79.2124 H         1 UNK         0.0855 
     98 H98       -73.8992   24.2249  -76.2101 H         1 UNK         0.0814 
     99 H99       -72.4896   23.5473  -77.0138 H         1 UNK         0.0814 
    100 H100      -74.0898   22.9242  -77.3834 H         1 UNK         0.0814 
    101 H101      -75.7240   24.8920  -77.7267 H         1 UNK         0.3105 
    102 H102      -77.3128   26.8298  -80.2968 H         1 UNK         0.0547 
    103 H103      -78.9840   25.0323  -79.9801 H         1 UNK         0.0837 
    104 H104      -77.6012   24.4121  -80.8686 H         1 UNK         0.0837 
    105 H105      -77.7942   24.0220  -79.1644 H         1 UNK         0.0837 
    106 H106      -78.2422   26.0166  -77.7363 H         1 UNK         0.3020 
    107 H107      -77.0088   28.8480  -75.9409 H         1 UNK         0.1245 
    108 H108      -79.6609   28.4238  -75.3775 H         1 UNK         0.0781 
    109 H109      -79.7558   28.2947  -77.1008 H         1 UNK         0.0781 
    110 H110      -80.5220   30.7244  -74.4246 H         1 UNK         0.0836 
    111 H111      -79.4448   32.0923  -74.5756 H         1 UNK         0.0836 
    112 H112      -78.4108   26.5861  -74.9913 H         1 UNK         0.3022 
    113 H113      -75.4922   24.6058  -74.3434 H         1 UNK         0.0747 
    114 H114      -75.6410   26.1348  -72.3913 H         1 UNK         0.0793 
    115 H115      -77.3956   26.1023  -72.4847 H         1 UNK         0.0793 
    116 H116      -76.5094   24.6406  -72.0536 H         1 UNK         0.0793 
    117 H117      -78.2716   24.1615  -73.8404 H         1 UNK         0.3047 
    118 H118      -78.9832   22.6535  -77.0361 H         1 UNK         0.0822 
    119 H119      -78.0851   20.9193  -75.4865 H         1 UNK         0.0807 
    120 H120      -79.8403   20.9496  -75.4487 H         1 UNK         0.0807 
    121 H121      -78.9151   21.6675  -74.1307 H         1 UNK         0.0807 
    122 H122      -80.6176   23.3858  -74.7805 H         1 UNK         0.2946 
    123 H123      -81.6126   26.5614  -75.9693 H         1 UNK         0.1144 
    124 H124      -83.8810   25.5629  -76.0838 H         1 UNK         0.0793 
    125 H125      -83.1949   23.9385  -76.1488 H         1 UNK         0.0793 
    126 H126      -82.9322   25.0641  -77.4736 H         1 UNK         0.0793 
    127 H127      -82.6708   24.8973  -73.9085 H         1 UNK         0.2896 
@<TRIPOS>BOND
     1    1    2 1    
     2    1   67 1    
     3    1   68 1    
     4    1   69 1    
     5    2    3 2    
     6    2    4 am   BACKBONE|DICT|INTERRES
     7    4    5 1    
     8    4   70 1    
     9    5    6 1    
    10    5   65 1    
    11    5   71 1    
    12    6    7 1    
    13    6   72 1    
    14    6   73 1    
    15    7    8 1    
    16    8    9 1    
    17    8   74 1    
    18    8   75 1    
    19    9   10 ar   
    20    9   14 ar   
    21   10   11 ar   
    22   10   76 1    
    23   11   12 ar   
    24   11   48 1    
    25   12   13 ar   
    26   12   77 1    
    27   13   14 ar   
    28   13   15 1    
    29   14   78 1    
    30   15   16 1    
    31   15   79 1    
    32   15   80 1    
    33   16   17 1    
    34   17   18 1    
    35   17   81 1    
    36   17   82 1    
    37   18   19 1    
    38   18   22 1    
    39   18   83 1    
    40   19   20 am   BACKBONE|DICT|INTERRES
    41   19   21 2    
    42   20   84 1    
    43   20   85 1    
    44   22   23 am   BACKBONE|DICT|INTERRES
    45   22   86 1    
    46   23   24 2    
    47   23   25 1    
    48   25   26 1    
    49   25   27 1    
    50   25   87 1    
    51   26   88 1    
    52   26   89 1    
    53   26   90 1    
    54   27   28 am   BACKBONE|DICT|INTERRES
    55   27   91 1    
    56   28   29 2    
    57   28   30 1    
    58   30   31 1    
    59   30   32 1    
    60   30   92 1    
    61   31   93 1    
    62   31   94 1    
    63   31   95 1    
    64   32   33 am   BACKBONE|DICT|INTERRES
    65   32   96 1    
    66   33   34 2    
    67   33   35 1    
    68   35   36 1    
    69   35   37 1    
    70   35   97 1    
    71   36   98 1    
    72   36   99 1    
    73   36  100 1    
    74   37   38 am   BACKBONE|DICT|INTERRES
    75   37  101 1    
    76   38   39 2    
    77   38   40 1    
    78   40   41 1    
    79   40   42 1    
    80   40  102 1    
    81   41  103 1    
    82   41  104 1    
    83   41  105 1    
    84   42   43 am   BACKBONE|DICT|INTERRES
    85   42  106 1    
    86   43   44 2    
    87   43   45 1    
    88   45   46 1    
    89   45   49 1    
    90   45  107 1    
    91   46   47 1    
    92   46  108 1    
    93   46  109 1    
    94   47   48 1    
    95   48  110 1    
    96   48  111 1    
    97   49   50 am   BACKBONE|DICT|INTERRES
    98   49  112 1    
    99   50   51 2    
   100   50   52 1    
   101   52   53 1    
   102   52   54 1    
   103   52  113 1    
   104   53  114 1    
   105   53  115 1    
   106   53  116 1    
   107   54   55 am   BACKBONE|DICT|INTERRES
   108   54  117 1    
   109   55   56 2    
   110   55   57 1    
   111   57   58 1    
   112   57   59 1    
   113   57  118 1    
   114   58  119 1    
   115   58  120 1    
   116   58  121 1    
   117   59   60 am   BACKBONE|DICT|INTERRES
   118   59  122 1    
   119   60   61 2    
   120   60   62 1    
   121   62   63 1    
   122   62   64 1    
   123   62  123 1    
   124   63  124 1    
   125   63  125 1    
   126   63  126 1    
   127   64   65 am   BACKBONE|DICT|INTERRES
   128   64  127 1    
   129   65   66 2    
@<TRIPOS>SUBSTRUCTURE
     1 UNK         1 GROUP             0       ****    0 ROOT    
