@<TRIPOS>MOLECULE
3R135
127   129    1
SMALL
USER_CHARGES


@<TRIPOS>ATOM
      1 CA        -79.5380   22.8762  -68.7057 C.3       0 UNK        -0.1998 
      2 C         -80.3850   23.6819  -69.6794 C.2       0 UNK         0.4909 
      3 O         -81.5816   23.4215  -69.8109 O.2       0 UNK        -0.5240 
      4 N         -79.7756   24.6641  -70.3547 N.am      1 UNK        -0.4739 
      5 CA        -80.4116   25.5065  -71.3730 C.3       1 UNK         0.0864 
      6 C6        -79.5404   26.7390  -71.7213 C.3       11 UNK        -0.0881 
      7 S7        -79.2904   27.8223  -70.2725 S.3       11 UNK        -0.2682 
      8 C8        -80.0190   29.3928  -70.8340 C.3       11 UNK         0.0289 
      9 C9        -79.0526   30.1727  -71.7134 C.ar      11 UNK        -0.0687 
     10 C10       -79.1296   30.0865  -73.1060 C.ar      11 UNK        -0.0823 
     11 C11       -78.2377   30.7995  -73.9132 C.ar      11 UNK        -0.0830 
     12 C12       -77.2794   31.6271  -73.3157 C.ar      11 UNK        -0.1021 
     13 C13       -77.1997   31.7306  -71.9224 C.ar      11 UNK        -0.0753 
     14 C14       -78.0847   30.9947  -71.1288 C.ar      11 UNK        -0.0933 
     15 C15       -76.1899   32.6624  -71.2635 C.3       11 UNK         0.0166 
     16 S16       -74.5851   31.8523  -70.9601 S.3       11 UNK        -0.2615 
     17 C17       -73.7601   32.0462  -72.5767 C.3       11 UNK        -0.0865 
     18 CA        -73.7146   30.7178  -73.3762 C.3       10 UNK         0.0862 
     19 C         -73.3604   30.9490  -74.8761 C.2       10 UNK         0.5551 
     20 N         -72.5271   30.1268  -75.5024 N.am      10 UNK        -0.7319 
     21 O         -73.8708   31.8798  -75.4937 O.2       10 UNK        -0.5018 
     22 N         -72.8355   29.7282  -72.7339 N.am      10 UNK        -0.4509 
     23 C         -73.1159   28.4297  -72.5964 C.2       10 UNK         0.4899 
     24 O         -74.2187   27.9226  -72.8069 O.2       10 UNK        -0.4839 
     25 CA        -71.9398   27.5384  -72.1629 C.3       9 UNK         0.0222 
     26 CB        -72.0299   27.2239  -70.6610 C.3       9 UNK        -0.1966 
     27 N         -71.8787   26.2840  -72.9203 N.am      9 UNK        -0.4218 
     28 C         -71.8229   26.1689  -74.2563 C.2       9 UNK         0.5020 
     29 O         -71.7662   27.1353  -75.0223 O.2       9 UNK        -0.5274 
     30 CA        -71.8165   24.7310  -74.8136 C.3       8 UNK         0.0270 
     31 CB        -72.7323   23.7830  -74.0103 C.3       8 UNK        -0.1976 
     32 N         -72.2406   24.6990  -76.2144 N.am      8 UNK        -0.4313 
     33 C         -71.4282   24.7426  -77.2775 C.2       8 UNK         0.5041 
     34 O         -70.2010   24.8208  -77.1939 O.2       8 UNK        -0.5577 
     35 CA        -72.0697   24.6552  -78.6734 C.3       7 UNK         0.0284 
     36 CB        -72.2241   23.1873  -79.1075 C.3       7 UNK        -0.1958 
     37 N         -73.3700   25.3288  -78.7594 N.am      7 UNK        -0.4454 
     38 C         -73.7634   26.0951  -79.7890 C.2       7 UNK         0.5089 
     39 O         -73.0742   26.2993  -80.7895 O.2       7 UNK        -0.5125 
     40 CA        -75.1606   26.7497  -79.7113 C.3       6 UNK         0.0408 
     41 CB        -76.1744   25.9434  -80.5379 C.3       6 UNK        -0.1791 
     42 N         -75.6697   26.8947  -78.3464 N.am      6 UNK        -0.4762 
     43 C         -75.1062   27.6594  -77.3985 C.2       6 UNK         0.5007 
     44 O         -74.2024   28.4593  -77.6380 O.2       6 UNK        -0.5032 
     45 CA        -75.5819   27.4750  -75.9378 C.3       5 UNK         0.0783 
     46 C46       -76.2916   28.7412  -75.3990 C.3       11 UNK        -0.0857 
     47 S47       -77.9947   28.9796  -76.0098 S.3       11 UNK        -0.2512 
     48 C48       -78.3192   30.6786  -75.4307 C.3       11 UNK         0.0225 
     49 N         -76.3926   26.2756  -75.6980 N.am      5 UNK        -0.4615 
     50 C         -76.0633   25.0029  -75.9519 C.2       4 UNK         0.5053 
     51 O         -74.9651   24.6548  -76.3836 O.2       4 UNK        -0.5105 
     52 CA        -77.1696   23.9502  -75.7680 C.3       4 UNK         0.0263 
     53 CB        -76.9954   23.2319  -74.4217 C.3       4 UNK        -0.1981 
     54 N         -78.5281   24.5051  -75.8749 N.am      4 UNK        -0.4224 
     55 C         -79.0244   25.0826  -76.9846 C.2       3 UNK         0.4895 
     56 O         -78.3843   25.1679  -78.0345 O.2       3 UNK        -0.5091 
     57 CA        -80.4230   25.7330  -76.9104 C.3       3 UNK         0.0250 
     58 CB        -81.1961   25.6192  -78.2421 C.3       3 UNK        -0.1996 
     59 N         -81.2461   25.2909  -75.7777 N.am      3 UNK        -0.4254 
     60 C         -81.7293   24.0605  -75.5481 C.2       2 UNK         0.5004 
     61 O         -81.5782   23.1072  -76.3139 O.2       2 UNK        -0.5226 
     62 CA        -82.4877   23.8697  -74.2163 C.3       2 UNK         0.0269 
     63 CB        -82.5749   22.3858  -73.7979 C.3       2 UNK        -0.1926 
     64 N         -81.9608   24.6759  -73.0998 N.am      2 UNK        -0.4687 
     65 C         -80.7014   24.6706  -72.6344 C.2       1 UNK         0.5165 
     66 O         -79.7761   24.0594  -73.1713 O.2       1 UNK        -0.5079 
     67 H67       -78.5046   23.2215  -68.6819 H         1 UNK         0.0900 
     68 H68       -79.5376   21.8245  -68.9910 H         1 UNK         0.0900 
     69 H69       -79.9456   22.9565  -67.6983 H         1 UNK         0.0900 
     70 H70       -78.7903   24.8308  -70.2104 H         1 UNK         0.2959 
     71 H71       -81.3614   25.8621  -70.9669 H         1 UNK         0.1079 
     72 H72       -78.5604   26.4313  -72.0923 H         1 UNK         0.0837 
     73 H73       -80.0003   27.3112  -72.5280 H         1 UNK         0.0837 
     74 H74       -80.2753   29.9906  -69.9580 H         1 UNK         0.0685 
     75 H75       -80.9588   29.2055  -71.3558 H         1 UNK         0.0685 
     76 H76       -79.8772   29.4567  -73.5679 H         1 UNK         0.1434 
     77 H77       -76.5959   32.1928  -73.9341 H         1 UNK         0.1329 
     78 H78       -78.0257   31.0666  -70.0512 H         1 UNK         0.1335 
     79 H79       -76.5834   33.0059  -70.3056 H         1 UNK         0.0680 
     80 H80       -76.0543   33.5631  -71.8638 H         1 UNK         0.0680 
     81 H81       -74.2739   32.8277  -73.1385 H         1 UNK         0.1032 
     82 H82       -72.7501   32.4241  -72.4104 H         1 UNK         0.1032 
     83 H83       -74.7316   30.3250  -73.3920 H         1 UNK         0.0461 
     84 H84       -72.1695   29.2934  -75.0542 H         1 UNK         0.3453 
     85 H85       -72.3512   30.2718  -76.4837 H         1 UNK         0.3453 
     86 H86       -71.8979   30.0455  -72.5340 H         1 UNK         0.2984 
     87 H87       -71.0050   28.0714  -72.3488 H         1 UNK         0.0554 
     88 H88       -71.1709   26.6449  -70.3212 H         1 UNK         0.0847 
     89 H89       -72.9331   26.6611  -70.4209 H         1 UNK         0.0847 
     90 H90       -72.0536   28.1413  -70.0711 H         1 UNK         0.0847 
     91 H91       -71.9421   25.4352  -72.3782 H         1 UNK         0.3141 
     92 H92       -70.7933   24.3578  -74.7369 H         1 UNK         0.0743 
     93 H93       -73.7404   24.1866  -73.9054 H         1 UNK         0.0784 
     94 H94       -72.8159   22.8099  -74.4953 H         1 UNK         0.0784 
     95 H95       -72.3427   23.5993  -73.0087 H         1 UNK         0.0784 
     96 H96       -73.2489   24.6487  -76.3541 H         1 UNK         0.3213 
     97 H97       -71.3664   25.1366  -79.3566 H         1 UNK         0.0855 
     98 H98       -72.9357   22.6541  -78.4757 H         1 UNK         0.0814 
     99 H99       -71.2717   22.6587  -79.0475 H         1 UNK         0.0814 
    100 H100      -72.5704   23.1141  -80.1385 H         1 UNK         0.0814 
    101 H101      -74.0070   25.2077  -77.9783 H         1 UNK         0.3105 
    102 H102      -75.0811   27.7480  -80.1464 H         1 UNK         0.0547 
    103 H103      -75.8451   25.8435  -81.5730 H         1 UNK         0.0837 
    104 H104      -76.3095   24.9371  -80.1389 H         1 UNK         0.0837 
    105 H105      -77.1503   26.4291  -80.5538 H         1 UNK         0.0837 
    106 H106      -76.4392   26.2888  -78.0848 H         1 UNK         0.3020 
    107 H107      -74.6640   27.3433  -75.3609 H         1 UNK         0.1245 
    108 H108      -75.7153   29.6358  -75.6322 H         1 UNK         0.0781 
    109 H109      -76.3363   28.6897  -74.3101 H         1 UNK         0.0781 
    110 H110      -79.3143   30.9806  -75.7598 H         1 UNK         0.0836 
    111 H111      -77.6169   31.3593  -75.9148 H         1 UNK         0.0836 
    112 H112      -77.3290   26.4582  -75.3696 H         1 UNK         0.3022 
    113 H113      -77.0518   23.2135  -76.5653 H         1 UNK         0.0747 
    114 H114      -77.7396   22.4459  -74.2917 H         1 UNK         0.0793 
    115 H115      -76.0131   22.7622  -74.3539 H         1 UNK         0.0793 
    116 H116      -77.0855   23.9218  -73.5815 H         1 UNK         0.0793 
    117 H117      -79.1073   24.4390  -75.0430 H         1 UNK         0.3047 
    118 H118      -80.2362   26.7942  -76.7393 H         1 UNK         0.0822 
    119 H119      -82.1712   26.1019  -78.1783 H         1 UNK         0.0807 
    120 H120      -81.3529   24.5803  -78.5332 H         1 UNK         0.0807 
    121 H121      -80.6512   26.1026  -79.0540 H         1 UNK         0.0807 
    122 H122      -81.4308   25.9938  -75.0757 H         1 UNK         0.2946 
    123 H123      -83.5048   24.2195  -74.4018 H         1 UNK         0.1144 
    124 H124      -83.1320   22.2676  -72.8685 H         1 UNK         0.0793 
    125 H125      -81.5858   21.9496  -73.6524 H         1 UNK         0.0793 
    126 H126      -83.0851   21.7913  -74.5569 H         1 UNK         0.0793 
    127 H127      -82.6494   25.2274  -72.6053 H         1 UNK         0.2896 
@<TRIPOS>BOND
     1    1    2 1    
     2    1   67 1    
     3    1   68 1    
     4    1   69 1    
     5    2    3 2    
     6    2    4 am   BACKBONE|DICT|INTERRES
     7    4    5 1    
     8    4   70 1    
     9    5    6 1    
    10    5   65 1    
    11    5   71 1    
    12    6    7 1    
    13    6   72 1    
    14    6   73 1    
    15    7    8 1    
    16    8    9 1    
    17    8   74 1    
    18    8   75 1    
    19    9   10 ar   
    20    9   14 ar   
    21   10   11 ar   
    22   10   76 1    
    23   11   12 ar   
    24   11   48 1    
    25   12   13 ar   
    26   12   77 1    
    27   13   14 ar   
    28   13   15 1    
    29   14   78 1    
    30   15   16 1    
    31   15   79 1    
    32   15   80 1    
    33   16   17 1    
    34   17   18 1    
    35   17   81 1    
    36   17   82 1    
    37   18   19 1    
    38   18   22 1    
    39   18   83 1    
    40   19   20 am   BACKBONE|DICT|INTERRES
    41   19   21 2    
    42   20   84 1    
    43   20   85 1    
    44   22   23 am   BACKBONE|DICT|INTERRES
    45   22   86 1    
    46   23   24 2    
    47   23   25 1    
    48   25   26 1    
    49   25   27 1    
    50   25   87 1    
    51   26   88 1    
    52   26   89 1    
    53   26   90 1    
    54   27   28 am   BACKBONE|DICT|INTERRES
    55   27   91 1    
    56   28   29 2    
    57   28   30 1    
    58   30   31 1    
    59   30   32 1    
    60   30   92 1    
    61   31   93 1    
    62   31   94 1    
    63   31   95 1    
    64   32   33 am   BACKBONE|DICT|INTERRES
    65   32   96 1    
    66   33   34 2    
    67   33   35 1    
    68   35   36 1    
    69   35   37 1    
    70   35   97 1    
    71   36   98 1    
    72   36   99 1    
    73   36  100 1    
    74   37   38 am   BACKBONE|DICT|INTERRES
    75   37  101 1    
    76   38   39 2    
    77   38   40 1    
    78   40   41 1    
    79   40   42 1    
    80   40  102 1    
    81   41  103 1    
    82   41  104 1    
    83   41  105 1    
    84   42   43 am   BACKBONE|DICT|INTERRES
    85   42  106 1    
    86   43   44 2    
    87   43   45 1    
    88   45   46 1    
    89   45   49 1    
    90   45  107 1    
    91   46   47 1    
    92   46  108 1    
    93   46  109 1    
    94   47   48 1    
    95   48  110 1    
    96   48  111 1    
    97   49   50 am   BACKBONE|DICT|INTERRES
    98   49  112 1    
    99   50   51 2    
   100   50   52 1    
   101   52   53 1    
   102   52   54 1    
   103   52  113 1    
   104   53  114 1    
   105   53  115 1    
   106   53  116 1    
   107   54   55 am   BACKBONE|DICT|INTERRES
   108   54  117 1    
   109   55   56 2    
   110   55   57 1    
   111   57   58 1    
   112   57   59 1    
   113   57  118 1    
   114   58  119 1    
   115   58  120 1    
   116   58  121 1    
   117   59   60 am   BACKBONE|DICT|INTERRES
   118   59  122 1    
   119   60   61 2    
   120   60   62 1    
   121   62   63 1    
   122   62   64 1    
   123   62  123 1    
   124   63  124 1    
   125   63  125 1    
   126   63  126 1    
   127   64   65 am   BACKBONE|DICT|INTERRES
   128   64  127 1    
   129   65   66 2    
@<TRIPOS>SUBSTRUCTURE
     1 UNK         1 GROUP             0       ****    0 ROOT    
