@<TRIPOS>MOLECULE
3R135
127   129    1
SMALL
USER_CHARGES


@<TRIPOS>ATOM
      1 CA        -81.2581   25.3218  -69.5419 C.3       0 UNK        -0.1998 
      2 C         -82.2361   25.8448  -70.5831 C.2       0 UNK         0.4909 
      3 O         -83.4392   25.6138  -70.4613 O.2       0 UNK        -0.5240 
      4 N         -81.7248   26.5362  -71.6090 N.am      1 UNK        -0.4739 
      5 CA        -82.5078   27.1031  -72.7191 C.3       1 UNK         0.0864 
      6 C6        -82.0810   28.5579  -73.0517 C.3       11 UNK        -0.0881 
      7 S7        -82.3764   29.6870  -71.6440 S.3       11 UNK        -0.2682 
      8 C8        -81.0487   30.9290  -71.8483 C.3       11 UNK         0.0289 
      9 C9        -79.6151   30.4450  -71.6099 C.ar      11 UNK        -0.0687 
     10 C10       -79.3132   29.1682  -71.1175 C.ar      11 UNK        -0.0823 
     11 C11       -77.9887   28.7484  -70.9870 C.ar      11 UNK        -0.0830 
     12 C12       -76.9556   29.6471  -71.2511 C.ar      11 UNK        -0.1021 
     13 C13       -77.2301   30.9216  -71.7513 C.ar      11 UNK        -0.0753 
     14 C14       -78.5622   31.3120  -71.9262 C.ar      11 UNK        -0.0933 
     15 C15       -76.0917   31.8603  -72.1351 C.3       11 UNK         0.0166 
     16 S16       -75.1029   31.2046  -73.5254 S.3       11 UNK        -0.2615 
     17 C17       -73.9126   30.1186  -72.6616 C.3       11 UNK        -0.0865 
     18 CA        -72.4704   30.2638  -73.2084 C.3       10 UNK         0.0862 
     19 C         -71.4184   29.7186  -72.1932 C.2       10 UNK         0.5551 
     20 N         -70.5421   28.7866  -72.5481 N.am      10 UNK        -0.7319 
     21 O         -71.3901   30.1641  -71.0486 O.2       10 UNK        -0.5018 
     22 N         -72.3628   29.7019  -74.5636 N.am      10 UNK        -0.4509 
     23 C         -71.4198   30.0374  -75.4522 C.2       10 UNK         0.4899 
     24 O         -70.6015   30.9416  -75.2743 O.2       10 UNK        -0.4839 
     25 CA        -71.3734   29.1944  -76.7416 C.3       9 UNK         0.0222 
     26 CB        -70.0857   29.4172  -77.5621 C.3       9 UNK        -0.1966 
     27 N         -71.5836   27.7619  -76.4935 N.am      9 UNK        -0.4218 
     28 C         -70.8738   26.9595  -75.6827 C.2       9 UNK         0.5020 
     29 O         -69.9038   27.3427  -75.0277 O.2       9 UNK        -0.5274 
     30 CA        -71.3268   25.4937  -75.5298 C.3       8 UNK         0.0270 
     31 CB        -71.8533   25.2476  -74.1054 C.3       8 UNK        -0.1976 
     32 N         -72.3520   25.0860  -76.4931 N.am      8 UNK        -0.4313 
     33 C         -72.1331   24.8605  -77.7959 C.2       8 UNK         0.5041 
     34 O         -71.0169   24.8719  -78.3157 O.2       8 UNK        -0.5577 
     35 CA        -73.3747   24.6366  -78.6765 C.3       7 UNK         0.0284 
     36 CB        -73.7878   23.1568  -78.6638 C.3       7 UNK        -0.1958 
     37 N         -74.5140   25.4732  -78.2823 N.am      7 UNK        -0.4454 
     38 C         -74.5265   26.8142  -78.3062 C.2       7 UNK         0.5089 
     39 O         -73.5846   27.4990  -78.7019 O.2       7 UNK        -0.5125 
     40 CA        -75.7724   27.5141  -77.7427 C.3       6 UNK         0.0408 
     41 CB        -76.9044   27.5482  -78.7815 C.3       6 UNK        -0.1791 
     42 N         -76.2452   26.8862  -76.5089 N.am      6 UNK        -0.4762 
     43 C         -75.6110   26.9432  -75.3274 C.2       6 UNK         0.5007 
     44 O         -74.5651   27.5677  -75.1349 O.2       6 UNK        -0.5032 
     45 CA        -76.2481   26.1354  -74.1767 C.3       5 UNK         0.0783 
     46 C46       -77.3747   26.9613  -73.5117 C.3       11 UNK        -0.0857 
     47 S47       -78.1115   26.1703  -72.0311 S.3       11 UNK        -0.2512 
     48 C48       -77.6625   27.2979  -70.6591 C.3       11 UNK         0.0225 
     49 N         -76.7186   24.8265  -74.6441 N.am      5 UNK        -0.4615 
     50 C         -75.9123   23.8444  -75.0746 C.2       4 UNK         0.5053 
     51 O         -74.6854   23.9328  -75.0979 O.2       4 UNK        -0.5105 
     52 CA        -76.5787   22.5653  -75.6139 C.3       4 UNK         0.0263 
     53 CB        -76.8622   21.5851  -74.4649 C.3       4 UNK        -0.1981 
     54 N         -77.8177   22.8209  -76.3514 N.am      4 UNK        -0.4224 
     55 C         -77.9243   23.5953  -77.4413 C.2       3 UNK         0.4895 
     56 O         -76.9605   24.1060  -78.0090 O.2       3 UNK        -0.5091 
     57 CA        -79.3416   23.8980  -77.9634 C.3       3 UNK         0.0250 
     58 CB        -79.6571   23.0246  -79.1878 C.3       3 UNK        -0.1996 
     59 N         -80.4078   23.7404  -76.9651 N.am      3 UNK        -0.4254 
     60 C         -80.4855   24.4040  -75.8026 C.2       2 UNK         0.5004 
     61 O         -79.6435   25.2228  -75.4239 O.2       2 UNK        -0.5226 
     62 CA        -81.6551   24.0150  -74.8853 C.3       2 UNK         0.0269 
     63 CB        -81.3902   22.6463  -74.2333 C.3       2 UNK        -0.1926 
     64 N         -81.8561   24.9973  -73.8223 N.am      2 UNK        -0.4687 
     65 C         -82.4556   26.1876  -73.9635 C.2       1 UNK         0.5165 
     66 O         -82.9715   26.5615  -75.0184 O.2       1 UNK        -0.5079 
     67 H67       -81.4275   25.8181  -68.5868 H         1 UNK         0.0900 
     68 H68       -81.3984   24.2507  -69.3992 H         1 UNK         0.0900 
     69 H69       -80.2220   25.4889  -69.8333 H         1 UNK         0.0900 
     70 H70       -80.7237   26.6588  -71.6790 H         1 UNK         0.2959 
     71 H71       -83.5626   27.1384  -72.4373 H         1 UNK         0.1079 
     72 H72       -81.0307   28.5898  -73.3470 H         1 UNK         0.0837 
     73 H73       -82.6470   28.9450  -73.9011 H         1 UNK         0.0837 
     74 H74       -81.2494   31.7504  -71.1592 H         1 UNK         0.0685 
     75 H75       -81.1240   31.3458  -72.8539 H         1 UNK         0.0685 
     76 H76       -80.1001   28.4739  -70.8741 H         1 UNK         0.1434 
     77 H77       -75.9346   29.3233  -71.1261 H         1 UNK         0.1329 
     78 H78       -78.7832   32.2946  -72.3209 H         1 UNK         0.1335 
     79 H79       -76.4900   32.8309  -72.4344 H         1 UNK         0.0680 
     80 H80       -75.4581   32.0519  -71.2683 H         1 UNK         0.0680 
     81 H81       -74.2476   29.0833  -72.7458 H         1 UNK         0.1032 
     82 H82       -73.9370   30.3608  -71.5980 H         1 UNK         0.1032 
     83 H83       -72.2589   31.3326  -73.2791 H         1 UNK         0.0461 
     84 H84       -69.8746   28.4643  -71.8662 H         1 UNK         0.3453 
     85 H85       -70.4997   28.4249  -73.4946 H         1 UNK         0.3453 
     86 H86       -73.0093   28.9534  -74.7907 H         1 UNK         0.2984 
     87 H87       -72.2153   29.5259  -77.3506 H         1 UNK         0.0554 
     88 H88       -69.9816   30.4635  -77.8517 H         1 UNK         0.0847 
     89 H89       -70.0945   28.8278  -78.4790 H         1 UNK         0.0847 
     90 H90       -69.1936   29.1454  -76.9968 H         1 UNK         0.0847 
     91 H91       -72.3650   27.3575  -76.9963 H         1 UNK         0.3141 
     92 H92       -70.4461   24.8662  -75.6810 H         1 UNK         0.0743 
     93 H93       -71.1010   25.5022  -73.3575 H         1 UNK         0.0784 
     94 H94       -72.7388   25.8480  -73.8941 H         1 UNK         0.0784 
     95 H95       -72.1155   24.2002  -73.9549 H         1 UNK         0.0784 
     96 H96       -73.2934   24.9672  -76.1295 H         1 UNK         0.3213 
     97 H97       -73.1076   24.9082  -79.7000 H         1 UNK         0.0855 
     98 H98       -74.0530   22.8222  -77.6611 H         1 UNK         0.0814 
     99 H99       -72.9727   22.5221  -79.0140 H         1 UNK         0.0814 
    100 H100      -74.6431   22.9763  -79.3153 H         1 UNK         0.0814 
    101 H101      -75.3662   24.9869  -78.0067 H         1 UNK         0.3105 
    102 H102      -75.4987   28.5457  -77.5101 H         1 UNK         0.0547 
    103 H103      -77.7723   28.0896  -78.4051 H         1 UNK         0.0837 
    104 H104      -77.2304   26.5475  -79.0657 H         1 UNK         0.0837 
    105 H105      -76.5790   28.0530  -79.6921 H         1 UNK         0.0837 
    106 H106      -77.0789   26.3190  -76.5753 H         1 UNK         0.3020 
    107 H107      -75.4655   25.9638  -73.4341 H         1 UNK         0.1245 
    108 H108      -78.1844   27.1421  -74.2210 H         1 UNK         0.0781 
    109 H109      -76.9907   27.9476  -73.2592 H         1 UNK         0.0781 
    110 H110      -76.6003   27.1782  -70.4403 H         1 UNK         0.0836 
    111 H111      -78.1953   26.9990  -69.7556 H         1 UNK         0.0836 
    112 H112      -77.7246   24.7107  -74.6980 H         1 UNK         0.3022 
    113 H113      -75.8780   22.0908  -76.3030 H         1 UNK         0.0747 
    114 H114      -77.2547   20.6386  -74.8372 H         1 UNK         0.0793 
    115 H115      -75.9493   21.3598  -73.9115 H         1 UNK         0.0793 
    116 H116      -77.5822   21.9923  -73.7536 H         1 UNK         0.0793 
    117 H117      -78.6652   22.4379  -75.9608 H         1 UNK         0.3047 
    118 H118      -79.3454   24.9434  -78.2791 H         1 UNK         0.0822 
    119 H119      -80.6116   23.2990  -79.6373 H         1 UNK         0.0807 
    120 H120      -79.6976   21.9656  -78.9295 H         1 UNK         0.0807 
    121 H121      -78.8938   23.1427  -79.9587 H         1 UNK         0.0807 
    122 H122      -81.1319   23.0725  -77.1895 H         1 UNK         0.2946 
    123 H123      -82.5647   23.9573  -75.4880 H         1 UNK         0.1144 
    124 H124      -80.4749   22.6516  -73.6394 H         1 UNK         0.0793 
    125 H125      -81.2890   21.8606  -74.9830 H         1 UNK         0.0793 
    126 H126      -82.2113   22.3555  -73.5775 H         1 UNK         0.0793 
    127 H127      -81.4362   24.7893  -72.9288 H         1 UNK         0.2896 
@<TRIPOS>BOND
     1    1    2 1    
     2    1   67 1    
     3    1   68 1    
     4    1   69 1    
     5    2    3 2    
     6    2    4 am   BACKBONE|DICT|INTERRES
     7    4    5 1    
     8    4   70 1    
     9    5    6 1    
    10    5   65 1    
    11    5   71 1    
    12    6    7 1    
    13    6   72 1    
    14    6   73 1    
    15    7    8 1    
    16    8    9 1    
    17    8   74 1    
    18    8   75 1    
    19    9   10 ar   
    20    9   14 ar   
    21   10   11 ar   
    22   10   76 1    
    23   11   12 ar   
    24   11   48 1    
    25   12   13 ar   
    26   12   77 1    
    27   13   14 ar   
    28   13   15 1    
    29   14   78 1    
    30   15   16 1    
    31   15   79 1    
    32   15   80 1    
    33   16   17 1    
    34   17   18 1    
    35   17   81 1    
    36   17   82 1    
    37   18   19 1    
    38   18   22 1    
    39   18   83 1    
    40   19   20 am   BACKBONE|DICT|INTERRES
    41   19   21 2    
    42   20   84 1    
    43   20   85 1    
    44   22   23 am   BACKBONE|DICT|INTERRES
    45   22   86 1    
    46   23   24 2    
    47   23   25 1    
    48   25   26 1    
    49   25   27 1    
    50   25   87 1    
    51   26   88 1    
    52   26   89 1    
    53   26   90 1    
    54   27   28 am   BACKBONE|DICT|INTERRES
    55   27   91 1    
    56   28   29 2    
    57   28   30 1    
    58   30   31 1    
    59   30   32 1    
    60   30   92 1    
    61   31   93 1    
    62   31   94 1    
    63   31   95 1    
    64   32   33 am   BACKBONE|DICT|INTERRES
    65   32   96 1    
    66   33   34 2    
    67   33   35 1    
    68   35   36 1    
    69   35   37 1    
    70   35   97 1    
    71   36   98 1    
    72   36   99 1    
    73   36  100 1    
    74   37   38 am   BACKBONE|DICT|INTERRES
    75   37  101 1    
    76   38   39 2    
    77   38   40 1    
    78   40   41 1    
    79   40   42 1    
    80   40  102 1    
    81   41  103 1    
    82   41  104 1    
    83   41  105 1    
    84   42   43 am   BACKBONE|DICT|INTERRES
    85   42  106 1    
    86   43   44 2    
    87   43   45 1    
    88   45   46 1    
    89   45   49 1    
    90   45  107 1    
    91   46   47 1    
    92   46  108 1    
    93   46  109 1    
    94   47   48 1    
    95   48  110 1    
    96   48  111 1    
    97   49   50 am   BACKBONE|DICT|INTERRES
    98   49  112 1    
    99   50   51 2    
   100   50   52 1    
   101   52   53 1    
   102   52   54 1    
   103   52  113 1    
   104   53  114 1    
   105   53  115 1    
   106   53  116 1    
   107   54   55 am   BACKBONE|DICT|INTERRES
   108   54  117 1    
   109   55   56 2    
   110   55   57 1    
   111   57   58 1    
   112   57   59 1    
   113   57  118 1    
   114   58  119 1    
   115   58  120 1    
   116   58  121 1    
   117   59   60 am   BACKBONE|DICT|INTERRES
   118   59  122 1    
   119   60   61 2    
   120   60   62 1    
   121   62   63 1    
   122   62   64 1    
   123   62  123 1    
   124   63  124 1    
   125   63  125 1    
   126   63  126 1    
   127   64   65 am   BACKBONE|DICT|INTERRES
   128   64  127 1    
   129   65   66 2    
@<TRIPOS>SUBSTRUCTURE
     1 UNK         1 GROUP             0       ****    0 ROOT    
