@<TRIPOS>MOLECULE
3R135
127   129    1
SMALL
USER_CHARGES


@<TRIPOS>ATOM
      1 CA        -78.2801   29.1736  -75.2374 C.3       0 UNK        -0.1998 
      2 C         -79.3982   30.1417  -74.8697 C.2       0 UNK         0.4909 
      3 O         -79.3321   31.3107  -75.2443 O.2       0 UNK        -0.5240 
      4 N         -80.4314   29.7168  -74.1319 N.am      1 UNK        -0.4739 
      5 CA        -80.6874   28.3530  -73.6450 C.3       1 UNK         0.0864 
      6 C6        -81.7160   28.3355  -72.4732 C.3       11 UNK        -0.0881 
      7 S7        -81.6271   29.7701  -71.3321 S.3       11 UNK        -0.2682 
      8 C8        -80.5513   29.1971  -69.9752 C.3       11 UNK         0.0289 
      9 C9        -79.1186   28.9240  -70.4178 C.ar      11 UNK        -0.0687 
     10 C10       -78.5287   27.6925  -70.1229 C.ar      11 UNK        -0.0823 
     11 C11       -77.2384   27.4002  -70.5702 C.ar      11 UNK        -0.0830 
     12 C12       -76.5261   28.3565  -71.2991 C.ar      11 UNK        -0.1021 
     13 C13       -77.0961   29.5978  -71.5890 C.ar      11 UNK        -0.0753 
     14 C14       -78.3867   29.8828  -71.1300 C.ar      11 UNK        -0.0933 
     15 C15       -76.3590   30.5891  -72.4789 C.3       11 UNK         0.0166 
     16 S16       -75.2441   31.6930  -71.5563 S.3       11 UNK        -0.2615 
     17 C17       -73.7647   30.6623  -71.2518 C.3       11 UNK        -0.0865 
     18 CA        -72.6997   30.7807  -72.3792 C.3       10 UNK         0.0862 
     19 C         -71.2901   30.3084  -71.9082 C.2       10 UNK         0.5551 
     20 N         -70.5641   29.4875  -72.6586 N.am      10 UNK        -0.7319 
     21 O         -70.8338   30.7078  -70.8397 O.2       10 UNK        -0.5018 
     22 N         -73.1530   30.1261  -73.6185 N.am      10 UNK        -0.4509 
     23 C         -72.8958   30.5591  -74.8581 C.2       10 UNK         0.4899 
     24 O         -72.3048   31.6106  -75.1096 O.2       10 UNK        -0.4839 
     25 CA        -73.3735   29.6431  -76.0042 C.3       9 UNK         0.0222 
     26 CB        -72.8081   30.0571  -77.3787 C.3       9 UNK        -0.1966 
     27 N         -73.1193   28.2166  -75.7587 N.am      9 UNK        -0.4218 
     28 C         -71.9381   27.6293  -75.5087 C.2       9 UNK         0.5020 
     29 O         -70.8783   28.2417  -75.3732 O.2       9 UNK        -0.5274 
     30 CA        -71.9370   26.0971  -75.3655 C.3       8 UNK         0.0270 
     31 CB        -72.3295   25.6940  -73.9347 C.3       8 UNK        -0.1976 
     32 N         -72.8111   25.4239  -76.3321 N.am      8 UNK        -0.4313 
     33 C         -72.6006   25.3899  -77.6576 C.2       8 UNK         0.5041 
     34 O         -71.6069   25.8676  -78.2066 O.2       8 UNK        -0.5577 
     35 CA        -73.6907   24.7302  -78.5234 C.3       7 UNK         0.0284 
     36 CB        -73.5444   23.2000  -78.5343 C.3       7 UNK        -0.1958 
     37 N         -75.0391   25.1021  -78.0894 N.am      7 UNK        -0.4454 
     38 C         -75.5506   26.3365  -78.2033 C.2       7 UNK         0.5089 
     39 O         -74.9976   27.2570  -78.8043 O.2       7 UNK        -0.5125 
     40 CA        -76.8797   26.6080  -77.4821 C.3       6 UNK         0.0408 
     41 CB        -78.0841   26.3551  -78.4021 C.3       6 UNK        -0.1791 
     42 N         -77.0093   25.8232  -76.2504 N.am      6 UNK        -0.4762 
     43 C         -76.3295   26.0863  -75.1242 C.2       6 UNK         0.5007 
     44 O         -75.5819   27.0551  -74.9951 O.2       6 UNK        -0.5032 
     45 CA        -76.4806   25.1015  -73.9494 C.3       5 UNK         0.0783 
     46 C46       -77.6212   25.5485  -73.0159 C.3       11 UNK        -0.0857 
     47 S47       -77.5321   24.7574  -71.3725 S.3       11 UNK        -0.2512 
     48 C48       -76.6562   26.0092  -70.3711 C.3       11 UNK         0.0225 
     49 N         -76.6565   23.7240  -74.4090 N.am      5 UNK        -0.4615 
     50 C         -75.6881   23.0042  -74.9887 C.2       4 UNK         0.5053 
     51 O         -74.5408   23.4197  -75.1472 O.2       4 UNK        -0.5105 
     52 CA        -76.0712   21.6176  -75.5350 C.3       4 UNK         0.0263 
     53 CB        -75.8311   20.5377  -74.4690 C.3       4 UNK        -0.1981 
     54 N         -77.4562   21.5357  -76.0115 N.am      4 UNK        -0.4224 
     55 C         -77.9796   22.2904  -76.9884 C.2       3 UNK         0.4895 
     56 O         -77.3318   23.1308  -77.6141 O.2       3 UNK        -0.5091 
     57 CA        -79.4786   22.1162  -77.3043 C.3       3 UNK         0.0250 
     58 CB        -80.1365   20.9063  -76.6007 C.3       3 UNK        -0.1996 
     59 N         -80.2494   23.3395  -77.0361 N.am      3 UNK        -0.4254 
     60 C         -80.3255   24.0045  -75.8732 C.2       2 UNK         0.5004 
     61 O         -79.7072   23.6862  -74.8560 O.2       2 UNK        -0.5226 
     62 CA        -81.2812   25.2044  -75.8326 C.3       2 UNK         0.0269 
     63 CB        -82.7272   24.7314  -75.5909 C.3       2 UNK        -0.1926 
     64 N         -80.8894   26.1514  -74.7814 N.am      2 UNK        -0.4687 
     65 C         -81.1713   27.4614  -74.8169 C.2       1 UNK         0.5165 
     66 O         -81.8098   27.9784  -75.7378 O.2       1 UNK        -0.5079 
     67 H67       -78.6577   28.3826  -75.8823 H         1 UNK         0.0900 
     68 H68       -77.4848   29.6909  -75.7736 H         1 UNK         0.0900 
     69 H69       -77.8379   28.7267  -74.3487 H         1 UNK         0.0900 
     70 H70       -81.1561   30.3800  -73.8987 H         1 UNK         0.2959 
     71 H71       -79.7495   27.9483  -73.2625 H         1 UNK         0.1079 
     72 H72       -81.6163   27.4124  -71.8991 H         1 UNK         0.0837 
     73 H73       -82.7366   28.3299  -72.8623 H         1 UNK         0.0837 
     74 H74       -80.9998   28.3106  -69.5240 H         1 UNK         0.0685 
     75 H75       -80.5336   29.9619  -69.1979 H         1 UNK         0.0685 
     76 H76       -79.0877   26.9387  -69.5848 H         1 UNK         0.1434 
     77 H77       -75.5513   28.1073  -71.6930 H         1 UNK         0.1329 
     78 H78       -78.8420   30.8347  -71.3673 H         1 UNK         0.1335 
     79 H79       -75.8093   30.0580  -73.2555 H         1 UNK         0.0680 
     80 H80       -77.0834   31.2103  -73.0076 H         1 UNK         0.0680 
     81 H81       -74.0394   29.6236  -71.0784 H         1 UNK         0.1032 
     82 H82       -73.3543   31.0110  -70.3023 H         1 UNK         0.1032 
     83 H83       -72.5739   31.8460  -72.5819 H         1 UNK         0.0461 
     84 H84       -69.6544   29.2060  -72.3298 H         1 UNK         0.3453 
     85 H85       -70.8791   29.1851  -73.5730 H         1 UNK         0.3453 
     86 H86       -73.6106   29.2336  -73.5109 H         1 UNK         0.2984 
     87 H87       -74.4583   29.7522  -76.0482 H         1 UNK         0.0554 
     88 H88       -73.0910   31.0804  -77.6284 H         1 UNK         0.0847 
     89 H89       -73.1889   29.4137  -78.1722 H         1 UNK         0.0847 
     90 H90       -71.7190   30.0047  -77.3993 H         1 UNK         0.0847 
     91 H91       -73.9522   27.6325  -75.7356 H         1 UNK         0.3141 
     92 H92       -70.9175   25.7499  -75.5460 H         1 UNK         0.0743 
     93 H93       -71.6472   26.1341  -73.2060 H         1 UNK         0.0784 
     94 H94       -73.3347   26.0286  -73.6805 H         1 UNK         0.0784 
     95 H95       -72.2917   24.6125  -73.8017 H         1 UNK         0.0784 
     96 H96       -73.6005   24.9066  -75.9547 H         1 UNK         0.3213 
     97 H97       -73.5606   25.0864  -79.5478 H         1 UNK         0.0855 
     98 H98       -73.6237   22.7736  -77.5349 H         1 UNK         0.0814 
     99 H99       -72.5720   22.9081  -78.9330 H         1 UNK         0.0814 
    100 H100      -74.3051   22.7323  -79.1598 H         1 UNK         0.0814 
    101 H101      -75.6043   24.3882  -77.6441 H         1 UNK         0.3105 
    102 H102      -76.8811   27.6668  -77.2194 H         1 UNK         0.0547 
    103 H103      -79.0219   26.6003  -77.9043 H         1 UNK         0.0837 
    104 H104      -78.1384   25.3186  -78.7335 H         1 UNK         0.0837 
    105 H105      -78.0225   26.9758  -79.2969 H         1 UNK         0.0837 
    106 H106      -77.5401   24.9640  -76.3114 H         1 UNK         0.3020 
    107 H107      -75.5461   25.1501  -73.3864 H         1 UNK         0.1245 
    108 H108      -78.5884   25.3030  -73.4409 H         1 UNK         0.0781 
    109 H109      -77.6451   26.6307  -72.9249 H         1 UNK         0.0781 
    110 H110      -75.5964   25.9914  -70.6299 H         1 UNK         0.0836 
    111 H111      -76.7191   25.7338  -69.3175 H         1 UNK         0.0836 
    112 H112      -77.5932   23.3423  -74.3426 H         1 UNK         0.3022 
    113 H113      -75.4190   21.4105  -76.3857 H         1 UNK         0.0747 
    114 H114      -76.0106   19.5389  -74.8672 H         1 UNK         0.0793 
    115 H115      -74.7993   20.5625  -74.1149 H         1 UNK         0.0793 
    116 H116      -76.4769   20.6760  -73.6007 H         1 UNK         0.0793 
    117 H117      -78.0647   20.8871  -75.5334 H         1 UNK         0.3047 
    118 H118      -79.5366   21.9421  -78.3799 H         1 UNK         0.0822 
    119 H119      -81.1686   20.7821  -76.9288 H         1 UNK         0.0807 
    120 H120      -80.1525   21.0147  -75.5155 H         1 UNK         0.0807 
    121 H121      -79.6171   19.9769  -76.8389 H         1 UNK         0.0807 
    122 H122      -80.7806   23.6892  -77.8215 H         1 UNK         0.2946 
    123 H123      -81.2251   25.7032  -76.8033 H         1 UNK         0.1144 
    124 H124      -82.8316   24.2427  -74.6214 H         1 UNK         0.0793 
    125 H125      -83.0427   24.0169  -76.3524 H         1 UNK         0.0793 
    126 H126      -83.4300   25.5641  -75.6227 H         1 UNK         0.0793 
    127 H127      -80.3651   25.7446  -74.0180 H         1 UNK         0.2896 
@<TRIPOS>BOND
     1    1    2 1    
     2    1   67 1    
     3    1   68 1    
     4    1   69 1    
     5    2    3 2    
     6    2    4 am   BACKBONE|DICT|INTERRES
     7    4    5 1    
     8    4   70 1    
     9    5    6 1    
    10    5   65 1    
    11    5   71 1    
    12    6    7 1    
    13    6   72 1    
    14    6   73 1    
    15    7    8 1    
    16    8    9 1    
    17    8   74 1    
    18    8   75 1    
    19    9   10 ar   
    20    9   14 ar   
    21   10   11 ar   
    22   10   76 1    
    23   11   12 ar   
    24   11   48 1    
    25   12   13 ar   
    26   12   77 1    
    27   13   14 ar   
    28   13   15 1    
    29   14   78 1    
    30   15   16 1    
    31   15   79 1    
    32   15   80 1    
    33   16   17 1    
    34   17   18 1    
    35   17   81 1    
    36   17   82 1    
    37   18   19 1    
    38   18   22 1    
    39   18   83 1    
    40   19   20 am   BACKBONE|DICT|INTERRES
    41   19   21 2    
    42   20   84 1    
    43   20   85 1    
    44   22   23 am   BACKBONE|DICT|INTERRES
    45   22   86 1    
    46   23   24 2    
    47   23   25 1    
    48   25   26 1    
    49   25   27 1    
    50   25   87 1    
    51   26   88 1    
    52   26   89 1    
    53   26   90 1    
    54   27   28 am   BACKBONE|DICT|INTERRES
    55   27   91 1    
    56   28   29 2    
    57   28   30 1    
    58   30   31 1    
    59   30   32 1    
    60   30   92 1    
    61   31   93 1    
    62   31   94 1    
    63   31   95 1    
    64   32   33 am   BACKBONE|DICT|INTERRES
    65   32   96 1    
    66   33   34 2    
    67   33   35 1    
    68   35   36 1    
    69   35   37 1    
    70   35   97 1    
    71   36   98 1    
    72   36   99 1    
    73   36  100 1    
    74   37   38 am   BACKBONE|DICT|INTERRES
    75   37  101 1    
    76   38   39 2    
    77   38   40 1    
    78   40   41 1    
    79   40   42 1    
    80   40  102 1    
    81   41  103 1    
    82   41  104 1    
    83   41  105 1    
    84   42   43 am   BACKBONE|DICT|INTERRES
    85   42  106 1    
    86   43   44 2    
    87   43   45 1    
    88   45   46 1    
    89   45   49 1    
    90   45  107 1    
    91   46   47 1    
    92   46  108 1    
    93   46  109 1    
    94   47   48 1    
    95   48  110 1    
    96   48  111 1    
    97   49   50 am   BACKBONE|DICT|INTERRES
    98   49  112 1    
    99   50   51 2    
   100   50   52 1    
   101   52   53 1    
   102   52   54 1    
   103   52  113 1    
   104   53  114 1    
   105   53  115 1    
   106   53  116 1    
   107   54   55 am   BACKBONE|DICT|INTERRES
   108   54  117 1    
   109   55   56 2    
   110   55   57 1    
   111   57   58 1    
   112   57   59 1    
   113   57  118 1    
   114   58  119 1    
   115   58  120 1    
   116   58  121 1    
   117   59   60 am   BACKBONE|DICT|INTERRES
   118   59  122 1    
   119   60   61 2    
   120   60   62 1    
   121   62   63 1    
   122   62   64 1    
   123   62  123 1    
   124   63  124 1    
   125   63  125 1    
   126   63  126 1    
   127   64   65 am   BACKBONE|DICT|INTERRES
   128   64  127 1    
   129   65   66 2    
@<TRIPOS>SUBSTRUCTURE
     1 UNK         1 GROUP             0       ****    0 ROOT    
