@<TRIPOS>MOLECULE
3R135
127   129    1
SMALL
USER_CHARGES


@<TRIPOS>ATOM
      1 CA        -83.4133   31.6023  -75.6856 C.3       0 UNK        -0.1998 
      2 C         -82.6938   30.3043  -75.3519 C.2       0 UNK         0.4909 
      3 O         -83.3344   29.3485  -74.9130 O.2       0 UNK        -0.5240 
      4 N         -81.3726   30.2601  -75.5772 N.am      1 UNK        -0.4739 
      5 CA        -80.4302   29.1567  -75.3075 C.3       1 UNK         0.0864 
      6 C6        -80.3790   28.7126  -73.8206 C.3       11 UNK        -0.0881 
      7 S7        -79.9137   30.0885  -72.7187 S.3       11 UNK        -0.2682 
      8 C8        -79.8989   29.2606  -71.0962 C.3       11 UNK         0.0289 
      9 C9        -78.7420   28.2805  -70.9405 C.ar      11 UNK        -0.0687 
     10 C10       -78.9871   26.9488  -70.5942 C.ar      11 UNK        -0.0823 
     11 C11       -77.9272   26.0579  -70.3965 C.ar      11 UNK        -0.0830 
     12 C12       -76.6128   26.4989  -70.5841 C.ar      11 UNK        -0.1021 
     13 C13       -76.3518   27.8267  -70.9419 C.ar      11 UNK        -0.0753 
     14 C14       -77.4224   28.7140  -71.0976 C.ar      11 UNK        -0.0933 
     15 C15       -74.9147   28.3079  -71.1209 C.3       11 UNK         0.0166 
     16 S16       -74.6810   29.2365  -72.6717 S.3       11 UNK        -0.2615 
     17 C17       -72.8837   29.5380  -72.6381 C.3       11 UNK        -0.0865 
     18 CA        -72.4494   30.5254  -73.7540 C.3       10 UNK         0.0862 
     19 C         -70.9655   30.9704  -73.5969 C.2       10 UNK         0.5551 
     20 N         -70.1436   30.9639  -74.6407 N.am      10 UNK        -0.7319 
     21 O         -70.5521   31.3538  -72.5051 O.2       10 UNK        -0.5018 
     22 N         -72.7523   29.9859  -75.0877 N.am      10 UNK        -0.4509 
     23 C         -73.2911   30.6771  -76.1003 C.2       10 UNK         0.4899 
     24 O         -73.6675   31.8466  -76.0056 O.2       10 UNK        -0.4839 
     25 CA        -73.4268   29.9398  -77.4515 C.3       9 UNK         0.0222 
     26 CB        -73.4894   30.9049  -78.6546 C.3       9 UNK        -0.1966 
     27 N         -72.3978   28.9134  -77.6633 N.am      9 UNK        -0.4218 
     28 C         -71.0654   29.0875  -77.6559 C.2       9 UNK         0.5020 
     29 O         -70.5218   30.1885  -77.5473 O.2       9 UNK        -0.5274 
     30 CA        -70.1971   27.8117  -77.7252 C.3       8 UNK         0.0270 
     31 CB        -68.7979   28.0206  -77.1064 C.3       8 UNK        -0.1976 
     32 N         -70.8387   26.6247  -77.1378 N.am      8 UNK        -0.4313 
     33 C         -71.3274   26.5053  -75.8943 C.2       8 UNK         0.5041 
     34 O         -71.2948   27.3989  -75.0442 O.2       8 UNK        -0.5577 
     35 CA        -71.9959   25.1651  -75.5548 C.3       7 UNK         0.0284 
     36 CB        -71.0657   24.2991  -74.6910 C.3       7 UNK        -0.1958 
     37 N         -73.2625   25.3600  -74.8502 N.am      7 UNK        -0.4454 
     38 C         -74.3398   25.9944  -75.3295 C.2       7 UNK         0.5089 
     39 O         -74.4013   26.4751  -76.4641 O.2       7 UNK        -0.5125 
     40 CA        -75.5494   26.0737  -74.3780 C.3       6 UNK         0.0408 
     41 CB        -76.7272   26.8663  -74.9681 C.3       6 UNK        -0.1791 
     42 N         -76.0130   24.7480  -73.9607 N.am      6 UNK        -0.4762 
     43 C         -75.4327   24.0013  -73.0074 C.2       6 UNK         0.5007 
     44 O         -74.4258   24.3601  -72.3933 O.2       6 UNK        -0.5032 
     45 CA        -76.0418   22.6214  -72.6834 C.3       5 UNK         0.0783 
     46 C46       -76.7576   22.6205  -71.3100 C.3       11 UNK        -0.0857 
     47 S47       -78.3784   23.4699  -71.3086 S.3       11 UNK        -0.2512 
     48 C48       -78.2117   24.6391  -69.9242 C.3       11 UNK         0.0225 
     49 N         -76.9045   22.1007  -73.7455 N.am      5 UNK        -0.4615 
     50 C         -76.4863   21.6580  -74.9372 C.2       4 UNK         0.5053 
     51 O         -75.3000   21.5712  -75.2540 O.2       4 UNK        -0.5105 
     52 CA        -77.5708   21.2486  -75.9522 C.3       4 UNK         0.0263 
     53 CB        -77.6953   19.7174  -76.0128 C.3       4 UNK        -0.1981 
     54 N         -78.8965   21.8288  -75.6956 N.am      4 UNK        -0.4224 
     55 C         -79.1839   23.1366  -75.7440 C.2       3 UNK         0.4895 
     56 O         -78.3463   24.0164  -75.9536 O.2       3 UNK        -0.5091 
     57 CA        -80.6403   23.5257  -75.4750 C.3       3 UNK         0.0250 
     58 CB        -80.8845   23.7446  -73.9717 C.3       3 UNK        -0.1996 
     59 N         -80.9404   24.7531  -76.2040 N.am      3 UNK        -0.4254 
     60 C         -82.1409   25.1077  -76.6725 C.2       2 UNK         0.5004 
     61 O         -83.1613   24.4354  -76.5087 O.2       2 UNK        -0.5226 
     62 CA        -82.2109   26.4470  -77.4313 C.3       2 UNK         0.0269 
     63 CB        -83.6032   26.7206  -78.0311 C.3       2 UNK        -0.1926 
     64 N         -81.8470   27.5699  -76.5656 N.am      2 UNK        -0.4687 
     65 C         -80.6028   27.9422  -76.2451 C.2       1 UNK         0.5165 
     66 O         -79.6031   27.3676  -76.6763 O.2       1 UNK        -0.5079 
     67 H67       -84.1903   31.4203  -76.4278 H         1 UNK         0.0900 
     68 H68       -83.8845   32.0092  -74.7910 H         1 UNK         0.0900 
     69 H69       -82.7336   32.3561  -76.0835 H         1 UNK         0.0900 
     70 H70       -80.9344   31.0834  -75.9672 H         1 UNK         0.2959 
     71 H71       -79.4459   29.5623  -75.5498 H         1 UNK         0.1079 
     72 H72       -79.6494   27.9122  -73.6852 H         1 UNK         0.0837 
     73 H73       -81.3390   28.3063  -73.4978 H         1 UNK         0.0837 
     74 H74       -80.8587   28.7649  -70.9420 H         1 UNK         0.0685 
     75 H75       -79.8176   30.0206  -70.3180 H         1 UNK         0.0685 
     76 H76       -80.0040   26.6096  -70.4505 H         1 UNK         0.1434 
     77 H77       -75.7922   25.8101  -70.4362 H         1 UNK         0.1329 
     78 H78       -77.2295   29.7471  -71.3524 H         1 UNK         0.1335 
     79 H79       -74.6444   28.9421  -70.2757 H         1 UNK         0.0680 
     80 H80       -74.2261   27.4612  -71.1152 H         1 UNK         0.0680 
     81 H81       -72.3586   28.5863  -72.7411 H         1 UNK         0.1032 
     82 H82       -72.6254   29.9306  -71.6528 H         1 UNK         0.1032 
     83 H83       -73.0273   31.4393  -73.6051 H         1 UNK         0.0461 
     84 H84       -69.1906   31.2642  -74.5151 H         1 UNK         0.3453 
     85 H85       -70.4624   30.6744  -75.5582 H         1 UNK         0.3453 
     86 H86       -72.4131   29.0420  -75.2504 H         1 UNK         0.2984 
     87 H87       -74.3774   29.4062  -77.4058 H         1 UNK         0.0554 
     88 H88       -74.3409   31.5814  -78.5713 H         1 UNK         0.0847 
     89 H89       -73.6004   30.3629  -79.5936 H         1 UNK         0.0847 
     90 H90       -72.5920   31.5203  -78.7262 H         1 UNK         0.0847 
     91 H91       -72.7447   27.9636  -77.7092 H         1 UNK         0.3141 
     92 H92       -70.0623   27.5975  -78.7864 H         1 UNK         0.0743 
     93 H93       -68.2546   28.8152  -77.6194 H         1 UNK         0.0784 
     94 H94       -68.8610   28.2970  -76.0530 H         1 UNK         0.0784 
     95 H95       -68.1920   27.1176  -77.1801 H         1 UNK         0.0784 
     96 H96       -70.9318   25.8336  -77.7613 H         1 UNK         0.3213 
     97 H97       -72.2148   24.6275  -76.4799 H         1 UNK         0.0855 
     98 H98       -70.8353   24.7822  -73.7402 H         1 UNK         0.0814 
     99 H99       -70.1189   24.1139  -75.2004 H         1 UNK         0.0814 
    100 H100      -71.5128   23.3284  -74.4750 H         1 UNK         0.0814 
    101 H101      -73.3237   25.0080  -73.9000 H         1 UNK         0.3105 
    102 H102      -75.2162   26.6039  -73.4872 H         1 UNK         0.0547 
    103 H103      -77.1069   26.4078  -75.8817 H         1 UNK         0.0837 
    104 H104      -76.4268   27.8855  -75.2136 H         1 UNK         0.0837 
    105 H105      -77.5498   26.9345  -74.2569 H         1 UNK         0.0837 
    106 H106      -76.8090   24.3727  -74.4646 H         1 UNK         0.3020 
    107 H107      -75.1904   21.9413  -72.6016 H         1 UNK         0.1245 
    108 H108      -76.1046   23.0386  -70.5419 H         1 UNK         0.0781 
    109 H109      -76.9355   21.5891  -71.0018 H         1 UNK         0.0781 
    110 H110      -77.4417   24.3101  -69.2254 H         1 UNK         0.0836 
    111 H111      -79.1424   24.6241  -69.3549 H         1 UNK         0.0836 
    112 H112      -77.8965   22.1430  -73.5634 H         1 UNK         0.3022 
    113 H113      -77.2405   21.6034  -76.9309 H         1 UNK         0.0747 
    114 H114      -78.3876   19.4050  -76.7950 H         1 UNK         0.0793 
    115 H115      -76.7320   19.2552  -76.2338 H         1 UNK         0.0793 
    116 H116      -78.0456   19.3029  -75.0666 H         1 UNK         0.0793 
    117 H117      -79.6411   21.1749  -75.4985 H         1 UNK         0.3047 
    118 H118      -81.2859   22.7226  -75.8374 H         1 UNK         0.0822 
    119 H119      -81.9233   24.0082  -73.7724 H         1 UNK         0.0807 
    120 H120      -80.2563   24.5441  -73.5756 H         1 UNK         0.0807 
    121 H121      -80.6664   22.8412  -73.4010 H         1 UNK         0.0807 
    122 H122      -80.1404   25.3542  -76.3852 H         1 UNK         0.2946 
    123 H123      -81.4980   26.3875  -78.2572 H         1 UNK         0.1144 
    124 H124      -83.6097   27.6431  -78.6119 H         1 UNK         0.0793 
    125 H125      -84.3665   26.8074  -77.2567 H         1 UNK         0.0793 
    126 H126      -83.9061   25.9150  -78.7014 H         1 UNK         0.0793 
    127 H127      -82.6060   28.0718  -76.1118 H         1 UNK         0.2896 
@<TRIPOS>BOND
     1    1    2 1    
     2    1   67 1    
     3    1   68 1    
     4    1   69 1    
     5    2    3 2    
     6    2    4 am   BACKBONE|DICT|INTERRES
     7    4    5 1    
     8    4   70 1    
     9    5    6 1    
    10    5   65 1    
    11    5   71 1    
    12    6    7 1    
    13    6   72 1    
    14    6   73 1    
    15    7    8 1    
    16    8    9 1    
    17    8   74 1    
    18    8   75 1    
    19    9   10 ar   
    20    9   14 ar   
    21   10   11 ar   
    22   10   76 1    
    23   11   12 ar   
    24   11   48 1    
    25   12   13 ar   
    26   12   77 1    
    27   13   14 ar   
    28   13   15 1    
    29   14   78 1    
    30   15   16 1    
    31   15   79 1    
    32   15   80 1    
    33   16   17 1    
    34   17   18 1    
    35   17   81 1    
    36   17   82 1    
    37   18   19 1    
    38   18   22 1    
    39   18   83 1    
    40   19   20 am   BACKBONE|DICT|INTERRES
    41   19   21 2    
    42   20   84 1    
    43   20   85 1    
    44   22   23 am   BACKBONE|DICT|INTERRES
    45   22   86 1    
    46   23   24 2    
    47   23   25 1    
    48   25   26 1    
    49   25   27 1    
    50   25   87 1    
    51   26   88 1    
    52   26   89 1    
    53   26   90 1    
    54   27   28 am   BACKBONE|DICT|INTERRES
    55   27   91 1    
    56   28   29 2    
    57   28   30 1    
    58   30   31 1    
    59   30   32 1    
    60   30   92 1    
    61   31   93 1    
    62   31   94 1    
    63   31   95 1    
    64   32   33 am   BACKBONE|DICT|INTERRES
    65   32   96 1    
    66   33   34 2    
    67   33   35 1    
    68   35   36 1    
    69   35   37 1    
    70   35   97 1    
    71   36   98 1    
    72   36   99 1    
    73   36  100 1    
    74   37   38 am   BACKBONE|DICT|INTERRES
    75   37  101 1    
    76   38   39 2    
    77   38   40 1    
    78   40   41 1    
    79   40   42 1    
    80   40  102 1    
    81   41  103 1    
    82   41  104 1    
    83   41  105 1    
    84   42   43 am   BACKBONE|DICT|INTERRES
    85   42  106 1    
    86   43   44 2    
    87   43   45 1    
    88   45   46 1    
    89   45   49 1    
    90   45  107 1    
    91   46   47 1    
    92   46  108 1    
    93   46  109 1    
    94   47   48 1    
    95   48  110 1    
    96   48  111 1    
    97   49   50 am   BACKBONE|DICT|INTERRES
    98   49  112 1    
    99   50   51 2    
   100   50   52 1    
   101   52   53 1    
   102   52   54 1    
   103   52  113 1    
   104   53  114 1    
   105   53  115 1    
   106   53  116 1    
   107   54   55 am   BACKBONE|DICT|INTERRES
   108   54  117 1    
   109   55   56 2    
   110   55   57 1    
   111   57   58 1    
   112   57   59 1    
   113   57  118 1    
   114   58  119 1    
   115   58  120 1    
   116   58  121 1    
   117   59   60 am   BACKBONE|DICT|INTERRES
   118   59  122 1    
   119   60   61 2    
   120   60   62 1    
   121   62   63 1    
   122   62   64 1    
   123   62  123 1    
   124   63  124 1    
   125   63  125 1    
   126   63  126 1    
   127   64   65 am   BACKBONE|DICT|INTERRES
   128   64  127 1    
   129   65   66 2    
@<TRIPOS>SUBSTRUCTURE
     1 UNK         1 GROUP             0       ****    0 ROOT    
