@<TRIPOS>MOLECULE
3R135
127   129    1
SMALL
USER_CHARGES


@<TRIPOS>ATOM
      1 CA        -80.6151   29.9801  -70.6984 C.3       0 UNK        -0.1998 
      2 C         -81.5138   29.4643  -71.8093 C.2       0 UNK         0.4909 
      3 O         -82.7207   29.3246  -71.6087 O.2       0 UNK        -0.5240 
      4 N         -80.9327   29.1802  -72.9830 N.am      1 UNK        -0.4739 
      5 CA        -81.6505   28.6740  -74.1633 C.3       1 UNK         0.0864 
      6 C6        -80.8227   28.7846  -75.4718 C.3       11 UNK        -0.0881 
      7 S7        -80.0578   30.4234  -75.7263 S.3       11 UNK        -0.2682 
      8 C8        -78.2799   30.0245  -75.6403 C.3       11 UNK         0.0289 
      9 C9        -77.8634   29.5596  -74.2512 C.ar      11 UNK        -0.0687 
     10 C10       -77.6972   28.1980  -73.9781 C.ar      11 UNK        -0.0823 
     11 C11       -77.3496   27.7685  -72.6937 C.ar      11 UNK        -0.0830 
     12 C12       -77.1432   28.7152  -71.6853 C.ar      11 UNK        -0.1021 
     13 C13       -77.2967   30.0799  -71.9491 C.ar      11 UNK        -0.0753 
     14 C14       -77.6560   30.4952  -73.2341 C.ar      11 UNK        -0.0933 
     15 C15       -77.1371   31.1066  -70.8365 C.3       11 UNK         0.0166 
     16 S16       -75.5686   32.0194  -70.9494 S.3       11 UNK        -0.2615 
     17 C17       -74.3655   30.7798  -70.3616 C.3       11 UNK        -0.0865 
     18 CA        -73.2331   30.5356  -71.3885 C.3       10 UNK         0.0862 
     19 C         -72.1274   29.6329  -70.7789 C.2       10 UNK         0.5551 
     20 N         -71.0156   30.2136  -70.3491 N.am      10 UNK        -0.7319 
     21 O         -72.2929   28.4223  -70.6469 O.2       10 UNK        -0.5018 
     22 N         -73.7521   29.9854  -72.6477 N.am      10 UNK        -0.4509 
     23 C         -73.0645   29.9526  -73.7935 C.2       10 UNK         0.4899 
     24 O         -71.9607   30.4807  -73.9524 O.2       10 UNK        -0.4839 
     25 CA        -73.7554   29.2510  -74.9752 C.3       9 UNK         0.0222 
     26 CB        -74.6188   30.2528  -75.7576 C.3       9 UNK        -0.1966 
     27 N         -72.8062   28.6255  -75.9000 N.am      9 UNK        -0.4218 
     28 C         -71.9186   27.6678  -75.5991 C.2       9 UNK         0.5020 
     29 O         -71.8123   27.1533  -74.4845 O.2       9 UNK        -0.5274 
     30 CA        -71.0082   27.2024  -76.7517 C.3       8 UNK         0.0270 
     31 CB        -70.0547   26.0647  -76.3387 C.3       8 UNK        -0.1976 
     32 N         -71.7890   26.7671  -77.9120 N.am      8 UNK        -0.4313 
     33 C         -72.2894   27.5748  -78.8570 C.2       8 UNK         0.5041 
     34 O         -72.1689   28.8005  -78.8280 O.2       8 UNK        -0.5577 
     35 CA        -73.0609   26.9215  -80.0190 C.3       7 UNK         0.0284 
     36 CB        -72.1433   26.7494  -81.2404 C.3       7 UNK        -0.1958 
     37 N         -73.6447   25.6242  -79.6669 N.am      7 UNK        -0.4454 
     38 C         -74.7113   25.4705  -78.8713 C.2       7 UNK         0.5089 
     39 O         -75.3580   26.4153  -78.4139 O.2       7 UNK        -0.5125 
     40 CA        -75.1299   24.0311  -78.5039 C.3       6 UNK         0.0408 
     41 CB        -74.1724   22.9285  -79.0119 C.3       6 UNK        -0.1791 
     42 N         -75.3485   23.9036  -77.0596 N.am      6 UNK        -0.4762 
     43 C         -74.4552   24.1523  -76.0861 C.2       6 UNK         0.5007 
     44 O         -73.2706   24.4107  -76.3035 O.2       6 UNK        -0.5032 
     45 CA        -74.9625   24.1399  -74.6263 C.3       5 UNK         0.0783 
     46 C46       -75.1146   25.5946  -74.1174 C.3       11 UNK        -0.0857 
     47 S47       -75.5251   25.6959  -72.3439 S.3       11 UNK        -0.2512 
     48 C48       -77.2471   26.2824  -72.3765 C.3       11 UNK         0.0225 
     49 N         -76.2033   23.3740  -74.4667 N.am      5 UNK        -0.4615 
     50 C         -76.3009   22.0409  -74.5445 C.2       4 UNK         0.5053 
     51 O         -75.3326   21.2921  -74.6759 O.2       4 UNK        -0.5105 
     52 CA        -77.7177   21.4368  -74.4819 C.3       4 UNK         0.0263 
     53 CB        -78.0096   20.9120  -73.0669 C.3       4 UNK        -0.1981 
     54 N         -78.7984   22.3484  -74.8805 N.am      4 UNK        -0.4224 
     55 C         -78.9287   22.9648  -76.0629 C.2       3 UNK         0.4895 
     56 O         -78.1098   22.8614  -76.9755 O.2       3 UNK        -0.5091 
     57 CA        -80.1433   23.8905  -76.2628 C.3       3 UNK         0.0250 
     58 CB        -81.2863   23.1491  -76.9829 C.3       3 UNK        -0.1996 
     59 N         -80.6243   24.5734  -75.0497 N.am      3 UNK        -0.4254 
     60 C         -81.2193   24.0593  -73.9619 C.2       2 UNK         0.5004 
     61 O         -81.3986   22.8532  -73.7930 O.2       2 UNK        -0.5226 
     62 CA        -81.6412   25.0383  -72.8481 C.3       2 UNK         0.0269 
     63 CB        -80.9331   24.6923  -71.5264 C.3       2 UNK        -0.1926 
     64 N         -81.3831   26.4483  -73.1606 N.am      2 UNK        -0.4687 
     65 C         -82.1248   27.2174  -73.9726 C.2       1 UNK         0.5165 
     66 O         -83.1211   26.8137  -74.5726 O.2       1 UNK        -0.5079 
     67 H67       -79.7734   29.3074  -70.5393 H         1 UNK         0.0900 
     68 H68       -81.1646   30.0571  -69.7605 H         1 UNK         0.0900 
     69 H69       -80.2347   30.9691  -70.9503 H         1 UNK         0.0900 
     70 H70       -79.9433   29.3519  -73.1098 H         1 UNK         0.2959 
     71 H71       -82.5473   29.2860  -74.2855 H         1 UNK         0.1079 
     72 H72       -80.0492   28.0177  -75.5136 H         1 UNK         0.0837 
     73 H73       -81.4677   28.5902  -76.3311 H         1 UNK         0.0837 
     74 H74       -78.0376   29.2701  -76.3907 H         1 UNK         0.0685 
     75 H75       -77.7106   30.9147  -75.9113 H         1 UNK         0.0685 
     76 H76       -77.8573   27.4716  -74.7625 H         1 UNK         0.1434 
     77 H77       -76.8844   28.3845  -70.6884 H         1 UNK         0.1329 
     78 H78       -77.7890   31.5490  -73.4391 H         1 UNK         0.1335 
     79 H79       -77.9542   31.8266  -70.8947 H         1 UNK         0.0680 
     80 H80       -77.2193   30.6368  -69.8551 H         1 UNK         0.0680 
     81 H81       -73.9517   31.1500  -69.4215 H         1 UNK         0.1032 
     82 H82       -74.8700   29.8434  -70.1177 H         1 UNK         0.1032 
     83 H83       -72.7868   31.5057  -71.6188 H         1 UNK         0.0461 
     84 H84       -70.8760   31.2075  -70.4460 H         1 UNK         0.3453 
     85 H85       -70.2943   29.6450  -69.9336 H         1 UNK         0.3453 
     86 H86       -74.6600   29.5455  -72.5993 H         1 UNK         0.2984 
     87 H87       -74.4052   28.4687  -74.5800 H         1 UNK         0.0554 
     88 H88       -75.2116   29.7523  -76.5236 H         1 UNK         0.0847 
     89 H89       -75.3126   30.7721  -75.0958 H         1 UNK         0.0847 
     90 H90       -74.0094   31.0144  -76.2458 H         1 UNK         0.0847 
     91 H91       -72.7866   28.9821  -76.8497 H         1 UNK         0.3141 
     92 H92       -70.3923   28.0580  -77.0374 H         1 UNK         0.0743 
     93 H93       -69.4215   26.3690  -75.5041 H         1 UNK         0.0784 
     94 H94       -70.6014   25.1741  -76.0259 H         1 UNK         0.0784 
     95 H95       -69.3939   25.7828  -77.1585 H         1 UNK         0.0784 
     96 H96       -72.0226   25.7839  -77.9445 H         1 UNK         0.3213 
     97 H97       -73.8710   27.6004  -80.2953 H         1 UNK         0.0855 
     98 H98       -71.7152   27.7062  -81.5433 H         1 UNK         0.0814 
     99 H99       -72.6912   26.3569  -82.0973 H         1 UNK         0.0814 
    100 H100      -71.3131   26.0733  -81.0322 H         1 UNK         0.0814 
    101 H101      -73.1736   24.7997  -80.0107 H         1 UNK         0.3105 
    102 H102      -76.1007   23.8673  -78.9737 H         1 UNK         0.0547 
    103 H103      -74.1109   22.9262  -80.1008 H         1 UNK         0.0837 
    104 H104      -73.1617   23.0411  -78.6183 H         1 UNK         0.0837 
    105 H105      -74.5282   21.9414  -78.7164 H         1 UNK         0.0837 
    106 H106      -76.3008   23.6696  -76.7958 H         1 UNK         0.3020 
    107 H107      -74.1870   23.6503  -74.0324 H         1 UNK         0.1245 
    108 H108      -74.1758   26.1316  -74.2467 H         1 UNK         0.0781 
    109 H109      -75.8522   26.1372  -74.7094 H         1 UNK         0.0781 
    110 H110      -77.6918   26.0949  -71.3980 H         1 UNK         0.0836 
    111 H111      -77.8261   25.6912  -73.0869 H         1 UNK         0.0836 
    112 H112      -77.0487   23.9061  -74.3368 H         1 UNK         0.3022 
    113 H113      -77.7361   20.5920  -75.1733 H         1 UNK         0.0747 
    114 H114      -78.9670   20.3921  -73.0256 H         1 UNK         0.0793 
    115 H115      -77.2442   20.2039  -72.7456 H         1 UNK         0.0793 
    116 H116      -78.0348   21.7205  -72.3350 H         1 UNK         0.0793 
    117 H117      -79.5734   22.4526  -74.2314 H         1 UNK         0.3047 
    118 H118      -79.8071   24.6875  -76.9283 H         1 UNK         0.0822 
    119 H119      -82.1213   23.8174  -77.1938 H         1 UNK         0.0807 
    120 H120      -81.6661   22.3125  -76.3957 H         1 UNK         0.0807 
    121 H121      -80.9464   22.7446  -77.9373 H         1 UNK         0.0807 
    122 H122      -80.5059   25.5753  -75.0532 H         1 UNK         0.2946 
    123 H123      -82.7165   24.9080  -72.7051 H         1 UNK         0.1144 
    124 H124      -81.2506   25.3541  -70.7203 H         1 UNK         0.0793 
    125 H125      -79.8492   24.7653  -71.6154 H         1 UNK         0.0793 
    126 H126      -81.1644   23.6733  -71.2124 H         1 UNK         0.0793 
    127 H127      -80.5966   26.8805  -72.6975 H         1 UNK         0.2896 
@<TRIPOS>BOND
     1    1    2 1    
     2    1   67 1    
     3    1   68 1    
     4    1   69 1    
     5    2    3 2    
     6    2    4 am   BACKBONE|DICT|INTERRES
     7    4    5 1    
     8    4   70 1    
     9    5    6 1    
    10    5   65 1    
    11    5   71 1    
    12    6    7 1    
    13    6   72 1    
    14    6   73 1    
    15    7    8 1    
    16    8    9 1    
    17    8   74 1    
    18    8   75 1    
    19    9   10 ar   
    20    9   14 ar   
    21   10   11 ar   
    22   10   76 1    
    23   11   12 ar   
    24   11   48 1    
    25   12   13 ar   
    26   12   77 1    
    27   13   14 ar   
    28   13   15 1    
    29   14   78 1    
    30   15   16 1    
    31   15   79 1    
    32   15   80 1    
    33   16   17 1    
    34   17   18 1    
    35   17   81 1    
    36   17   82 1    
    37   18   19 1    
    38   18   22 1    
    39   18   83 1    
    40   19   20 am   BACKBONE|DICT|INTERRES
    41   19   21 2    
    42   20   84 1    
    43   20   85 1    
    44   22   23 am   BACKBONE|DICT|INTERRES
    45   22   86 1    
    46   23   24 2    
    47   23   25 1    
    48   25   26 1    
    49   25   27 1    
    50   25   87 1    
    51   26   88 1    
    52   26   89 1    
    53   26   90 1    
    54   27   28 am   BACKBONE|DICT|INTERRES
    55   27   91 1    
    56   28   29 2    
    57   28   30 1    
    58   30   31 1    
    59   30   32 1    
    60   30   92 1    
    61   31   93 1    
    62   31   94 1    
    63   31   95 1    
    64   32   33 am   BACKBONE|DICT|INTERRES
    65   32   96 1    
    66   33   34 2    
    67   33   35 1    
    68   35   36 1    
    69   35   37 1    
    70   35   97 1    
    71   36   98 1    
    72   36   99 1    
    73   36  100 1    
    74   37   38 am   BACKBONE|DICT|INTERRES
    75   37  101 1    
    76   38   39 2    
    77   38   40 1    
    78   40   41 1    
    79   40   42 1    
    80   40  102 1    
    81   41  103 1    
    82   41  104 1    
    83   41  105 1    
    84   42   43 am   BACKBONE|DICT|INTERRES
    85   42  106 1    
    86   43   44 2    
    87   43   45 1    
    88   45   46 1    
    89   45   49 1    
    90   45  107 1    
    91   46   47 1    
    92   46  108 1    
    93   46  109 1    
    94   47   48 1    
    95   48  110 1    
    96   48  111 1    
    97   49   50 am   BACKBONE|DICT|INTERRES
    98   49  112 1    
    99   50   51 2    
   100   50   52 1    
   101   52   53 1    
   102   52   54 1    
   103   52  113 1    
   104   53  114 1    
   105   53  115 1    
   106   53  116 1    
   107   54   55 am   BACKBONE|DICT|INTERRES
   108   54  117 1    
   109   55   56 2    
   110   55   57 1    
   111   57   58 1    
   112   57   59 1    
   113   57  118 1    
   114   58  119 1    
   115   58  120 1    
   116   58  121 1    
   117   59   60 am   BACKBONE|DICT|INTERRES
   118   59  122 1    
   119   60   61 2    
   120   60   62 1    
   121   62   63 1    
   122   62   64 1    
   123   62  123 1    
   124   63  124 1    
   125   63  125 1    
   126   63  126 1    
   127   64   65 am   BACKBONE|DICT|INTERRES
   128   64  127 1    
   129   65   66 2    
@<TRIPOS>SUBSTRUCTURE
     1 UNK         1 GROUP             0       ****    0 ROOT    
