@<TRIPOS>MOLECULE
3R135
127   129    1
SMALL
USER_CHARGES


@<TRIPOS>ATOM
      1 CA        -81.8624   23.1368  -73.2634 C.3       0 UNK        -0.1998 
      2 C         -83.1273   23.9920  -73.2763 C.2       0 UNK         0.4909 
      3 O         -84.1974   23.4650  -73.5726 O.2       0 UNK        -0.5240 
      4 N         -83.0844   25.2959  -72.9603 N.am      1 UNK        -0.4739 
      5 CA        -81.9251   26.1405  -72.6384 C.3       1 UNK         0.0864 
      6 C6        -81.1305   25.6629  -71.3887 C.3       11 UNK        -0.0881 
      7 S7        -80.3601   27.0474  -70.4790 S.3       11 UNK        -0.2682 
      8 C8        -78.5860   26.6889  -70.6962 C.3       11 UNK         0.0289 
      9 C9        -77.7694   27.9419  -70.9664 C.ar      11 UNK        -0.0687 
     10 C10       -78.0614   28.7328  -72.0798 C.ar      11 UNK        -0.0823 
     11 C11       -77.2761   29.8450  -72.3911 C.ar      11 UNK        -0.0830 
     12 C12       -76.2000   30.1773  -71.5634 C.ar      11 UNK        -0.1021 
     13 C13       -75.8946   29.3924  -70.4467 C.ar      11 UNK        -0.0753 
     14 C14       -76.6855   28.2776  -70.1501 C.ar      11 UNK        -0.0933 
     15 C15       -74.6910   29.7261  -69.5795 C.3       11 UNK         0.0166 
     16 S16       -73.1975   28.9223  -70.2395 S.3       11 UNK        -0.2615 
     17 C17       -72.0669   30.3356  -70.4884 C.3       11 UNK        -0.0865 
     18 CA        -72.4644   31.3018  -71.6460 C.3       10 UNK         0.0862 
     19 C         -71.4594   32.4852  -71.7956 C.2       10 UNK         0.5551 
     20 N         -71.1982   32.9843  -72.9976 N.am      10 UNK        -0.7319 
     21 O         -70.9314   32.9829  -70.8039 O.2       10 UNK        -0.5018 
     22 N         -72.8100   30.6197  -72.9078 N.am      10 UNK        -0.4509 
     23 C         -72.0046   29.8424  -73.6405 C.2       10 UNK         0.4899 
     24 O         -70.8313   29.5867  -73.3597 O.2       10 UNK        -0.4839 
     25 CA        -72.6137   29.3149  -74.9481 C.3       9 UNK         0.0222 
     26 CB        -72.4004   30.3251  -76.0875 C.3       9 UNK        -0.1966 
     27 N         -72.0433   28.0255  -75.3376 N.am      9 UNK        -0.4218 
     28 C         -72.3571   26.8585  -74.7637 C.2       9 UNK         0.5020 
     29 O         -73.1688   26.7367  -73.8448 O.2       9 UNK        -0.5274 
     30 CA        -71.6719   25.6131  -75.3352 C.3       8 UNK         0.0270 
     31 CB        -71.0822   24.7199  -74.2273 C.3       8 UNK        -0.1976 
     32 N         -72.6560   24.8647  -76.1116 N.am      8 UNK        -0.4313 
     33 C         -72.3799   24.1037  -77.1774 C.2       8 UNK         0.5041 
     34 O         -71.2427   23.9300  -77.6188 O.2       8 UNK        -0.5577 
     35 CA        -73.5675   23.4281  -77.8817 C.3       7 UNK         0.0284 
     36 CB        -74.0679   22.2109  -77.0854 C.3       7 UNK        -0.1958 
     37 N         -74.6687   24.3659  -78.1047 N.am      7 UNK        -0.4454 
     38 C         -74.7332   25.2260  -79.1308 C.2       7 UNK         0.5089 
     39 O         -73.8949   25.2797  -80.0315 O.2       7 UNK        -0.5125 
     40 CA        -75.9346   26.1904  -79.1732 C.3       6 UNK         0.0408 
     41 CB        -77.0667   25.6003  -80.0284 C.3       6 UNK        -0.1791 
     42 N         -76.4607   26.5319  -77.8505 N.am      6 UNK        -0.4762 
     43 C         -75.7993   27.2362  -76.9206 C.2       6 UNK         0.5007 
     44 O         -74.6914   27.7343  -77.1105 O.2       6 UNK        -0.5032 
     45 CA        -76.4814   27.3673  -75.5401 C.3       5 UNK         0.0783 
     46 C46       -77.4576   28.5732  -75.5259 C.3       11 UNK        -0.0857 
     47 S47       -76.6285   30.1365  -75.0739 S.3       11 UNK        -0.2512 
     48 C48       -77.5867   30.6824  -73.6226 C.3       11 UNK         0.0225 
     49 N         -77.1391   26.1186  -75.1222 N.am      5 UNK        -0.4615 
     50 C         -76.5240   24.9326  -74.9901 C.2       4 UNK         0.5053 
     51 O         -75.3162   24.7692  -75.1477 O.2       4 UNK        -0.5105 
     52 CA        -77.4028   23.7015  -74.7252 C.3       4 UNK         0.0263 
     53 CB        -77.6777   23.5046  -73.2283 C.3       4 UNK        -0.1981 
     54 N         -78.6644   23.7851  -75.4581 N.am      4 UNK        -0.4224 
     55 C         -78.8033   23.4616  -76.7514 C.2       3 UNK         0.4895 
     56 O         -77.9032   22.9776  -77.4374 O.2       3 UNK        -0.5091 
     57 CA        -80.1699   23.7528  -77.3977 C.3       3 UNK         0.0250 
     58 CB        -81.0999   22.5364  -77.2661 C.3       3 UNK        -0.1996 
     59 N         -80.8329   24.9384  -76.8444 N.am      3 UNK        -0.4254 
     60 C         -80.3624   26.1884  -76.9599 C.2       2 UNK         0.5004 
     61 O         -79.3324   26.4768  -77.5671 O.2       2 UNK        -0.5226 
     62 CA        -81.1429   27.2988  -76.2381 C.3       2 UNK         0.0269 
     63 CB        -82.2329   27.8705  -77.1580 C.3       2 UNK        -0.1926 
     64 N         -81.7446   26.8896  -74.9623 N.am      2 UNK        -0.4687 
     65 C         -81.0740   26.4245  -73.8968 C.2       1 UNK         0.5165 
     66 O         -79.8654   26.1816  -73.9132 O.2       1 UNK        -0.5079 
     67 H67       -81.0177   23.6335  -73.7321 H         1 UNK         0.0900 
     68 H68       -81.5936   22.8760  -72.2404 H         1 UNK         0.0900 
     69 H69       -82.0318   22.2057  -73.8036 H         1 UNK         0.0900 
     70 H70       -83.9640   25.7944  -72.9687 H         1 UNK         0.2959 
     71 H71       -82.3657   27.1051  -72.3791 H         1 UNK         0.1079 
     72 H72       -80.3914   24.9023  -71.6394 H         1 UNK         0.0837 
     73 H73       -81.8114   25.1817  -70.6849 H         1 UNK         0.0837 
     74 H74       -78.2211   26.1587  -69.8153 H         1 UNK         0.0685 
     75 H75       -78.4344   26.0240  -71.5425 H         1 UNK         0.0685 
     76 H76       -78.8998   28.4663  -72.7070 H         1 UNK         0.1434 
     77 H77       -75.5909   31.0377  -71.7989 H         1 UNK         0.1329 
     78 H78       -76.4402   27.6588  -69.2978 H         1 UNK         0.1335 
     79 H79       -74.8548   29.3838  -68.5565 H         1 UNK         0.0680 
     80 H80       -74.5594   30.8070  -69.5190 H         1 UNK         0.0680 
     81 H81       -71.0697   29.9308  -70.6690 H         1 UNK         0.1032 
     82 H82       -71.9961   30.8804  -69.5451 H         1 UNK         0.1032 
     83 H83       -73.3883   31.7918  -71.3412 H         1 UNK         0.0461 
     84 H84       -71.6298   32.5916  -73.8180 H         1 UNK         0.3453 
     85 H85       -70.5561   33.7565  -73.0832 H         1 UNK         0.3453 
     86 H86       -73.7482   30.7806  -73.2434 H         1 UNK         0.2984 
     87 H87       -73.6881   29.1822  -74.8046 H         1 UNK         0.0554 
     88 H88       -72.8614   31.2851  -75.8519 H         1 UNK         0.0847 
     89 H89       -72.8531   29.9736  -77.0152 H         1 UNK         0.0847 
     90 H90       -71.3416   30.5071  -76.2760 H         1 UNK         0.0847 
     91 H91       -71.3557   28.0399  -76.0762 H         1 UNK         0.3141 
     92 H92       -70.8577   25.9336  -75.9891 H         1 UNK         0.0743 
     93 H93       -71.8593   24.3307  -73.5681 H         1 UNK         0.0784 
     94 H94       -70.5438   23.8702  -74.6476 H         1 UNK         0.0784 
     95 H95       -70.3781   25.2791  -73.6100 H         1 UNK         0.0784 
     96 H96       -73.6224   24.9469  -75.7908 H         1 UNK         0.3213 
     97 H97       -73.2172   23.0644  -78.8505 H         1 UNK         0.0855 
     98 H98       -74.4011   22.4821  -76.0838 H         1 UNK         0.0814 
     99 H99       -73.2748   21.4707  -76.9723 H         1 UNK         0.0814 
    100 H100      -74.8997   21.7210  -77.5921 H         1 UNK         0.0814 
    101 H101      -75.3818   24.4137  -77.3892 H         1 UNK         0.3105 
    102 H102      -75.5981   27.1154  -79.6459 H         1 UNK         0.0547 
    103 H103      -76.7165   25.3692  -81.0352 H         1 UNK         0.0837 
    104 H104      -77.4572   24.6773  -79.5984 H         1 UNK         0.0837 
    105 H105      -77.8967   26.3003  -80.1263 H         1 UNK         0.0837 
    106 H106      -77.4153   26.2446  -77.6477 H         1 UNK         0.3020 
    107 H107      -75.6899   27.5424  -74.8070 H         1 UNK         0.1245 
    108 H108      -78.2691   28.3916  -74.8250 H         1 UNK         0.0781 
    109 H109      -77.9522   28.7070  -76.4903 H         1 UNK         0.0781 
    110 H110      -78.6532   30.6519  -73.8517 H         1 UNK         0.0836 
    111 H111      -77.3527   31.7290  -73.4220 H         1 UNK         0.0836 
    112 H112      -78.1318   26.1718  -74.9224 H         1 UNK         0.3022 
    113 H113      -76.8481   22.8267  -75.0724 H         1 UNK         0.0747 
    114 H114      -78.1338   22.5329  -73.0385 H         1 UNK         0.0793 
    115 H115      -76.7552   23.5501  -72.6477 H         1 UNK         0.0793 
    116 H116      -78.3511   24.2643  -72.8415 H         1 UNK         0.0793 
    117 H117      -79.4281   24.2523  -74.9904 H         1 UNK         0.3047 
    118 H118      -79.9945   23.9355  -78.4603 H         1 UNK         0.0822 
    119 H119      -82.0424   22.6982  -77.7897 H         1 UNK         0.0807 
    120 H120      -81.3282   22.3096  -76.2246 H         1 UNK         0.0807 
    121 H121      -80.6402   21.6468  -77.6992 H         1 UNK         0.0807 
    122 H122      -81.6978   24.7957  -76.3438 H         1 UNK         0.2946 
    123 H123      -80.4324   28.0986  -76.0213 H         1 UNK         0.1144 
    124 H124      -81.8088   28.2008  -78.1076 H         1 UNK         0.0793 
    125 H125      -82.7204   28.7350  -76.7069 H         1 UNK         0.0793 
    126 H126      -83.0016   27.1305  -77.3842 H         1 UNK         0.0793 
    127 H127      -82.7423   27.0225  -74.8763 H         1 UNK         0.2896 
@<TRIPOS>BOND
     1    1    2 1    
     2    1   67 1    
     3    1   68 1    
     4    1   69 1    
     5    2    3 2    
     6    2    4 am   BACKBONE|DICT|INTERRES
     7    4    5 1    
     8    4   70 1    
     9    5    6 1    
    10    5   65 1    
    11    5   71 1    
    12    6    7 1    
    13    6   72 1    
    14    6   73 1    
    15    7    8 1    
    16    8    9 1    
    17    8   74 1    
    18    8   75 1    
    19    9   10 ar   
    20    9   14 ar   
    21   10   11 ar   
    22   10   76 1    
    23   11   12 ar   
    24   11   48 1    
    25   12   13 ar   
    26   12   77 1    
    27   13   14 ar   
    28   13   15 1    
    29   14   78 1    
    30   15   16 1    
    31   15   79 1    
    32   15   80 1    
    33   16   17 1    
    34   17   18 1    
    35   17   81 1    
    36   17   82 1    
    37   18   19 1    
    38   18   22 1    
    39   18   83 1    
    40   19   20 am   BACKBONE|DICT|INTERRES
    41   19   21 2    
    42   20   84 1    
    43   20   85 1    
    44   22   23 am   BACKBONE|DICT|INTERRES
    45   22   86 1    
    46   23   24 2    
    47   23   25 1    
    48   25   26 1    
    49   25   27 1    
    50   25   87 1    
    51   26   88 1    
    52   26   89 1    
    53   26   90 1    
    54   27   28 am   BACKBONE|DICT|INTERRES
    55   27   91 1    
    56   28   29 2    
    57   28   30 1    
    58   30   31 1    
    59   30   32 1    
    60   30   92 1    
    61   31   93 1    
    62   31   94 1    
    63   31   95 1    
    64   32   33 am   BACKBONE|DICT|INTERRES
    65   32   96 1    
    66   33   34 2    
    67   33   35 1    
    68   35   36 1    
    69   35   37 1    
    70   35   97 1    
    71   36   98 1    
    72   36   99 1    
    73   36  100 1    
    74   37   38 am   BACKBONE|DICT|INTERRES
    75   37  101 1    
    76   38   39 2    
    77   38   40 1    
    78   40   41 1    
    79   40   42 1    
    80   40  102 1    
    81   41  103 1    
    82   41  104 1    
    83   41  105 1    
    84   42   43 am   BACKBONE|DICT|INTERRES
    85   42  106 1    
    86   43   44 2    
    87   43   45 1    
    88   45   46 1    
    89   45   49 1    
    90   45  107 1    
    91   46   47 1    
    92   46  108 1    
    93   46  109 1    
    94   47   48 1    
    95   48  110 1    
    96   48  111 1    
    97   49   50 am   BACKBONE|DICT|INTERRES
    98   49  112 1    
    99   50   51 2    
   100   50   52 1    
   101   52   53 1    
   102   52   54 1    
   103   52  113 1    
   104   53  114 1    
   105   53  115 1    
   106   53  116 1    
   107   54   55 am   BACKBONE|DICT|INTERRES
   108   54  117 1    
   109   55   56 2    
   110   55   57 1    
   111   57   58 1    
   112   57   59 1    
   113   57  118 1    
   114   58  119 1    
   115   58  120 1    
   116   58  121 1    
   117   59   60 am   BACKBONE|DICT|INTERRES
   118   59  122 1    
   119   60   61 2    
   120   60   62 1    
   121   62   63 1    
   122   62   64 1    
   123   62  123 1    
   124   63  124 1    
   125   63  125 1    
   126   63  126 1    
   127   64   65 am   BACKBONE|DICT|INTERRES
   128   64  127 1    
   129   65   66 2    
@<TRIPOS>SUBSTRUCTURE
     1 UNK         1 GROUP             0       ****    0 ROOT    
