@<TRIPOS>MOLECULE
3R135
127   129    1
SMALL
USER_CHARGES


@<TRIPOS>ATOM
      1 CA        -80.5177   28.3596  -66.9991 C.3       0 UNK        -0.1998 
      2 C         -81.1409   27.3920  -67.9936 C.2       0 UNK         0.4909 
      3 O         -81.6169   26.3277  -67.5979 O.2       0 UNK        -0.5240 
      4 N         -81.1382   27.7507  -69.2839 N.am      1 UNK        -0.4739 
      5 CA        -81.6762   26.9418  -70.3871 C.3       1 UNK         0.0864 
      6 C6        -82.1330   27.8259  -71.5765 C.3       11 UNK        -0.0881 
      7 S7        -80.8517   28.9604  -72.2175 S.3       11 UNK        -0.2682 
      8 C8        -80.4144   28.1171  -73.7660 C.3       11 UNK         0.0289 
      9 C9        -79.3335   28.8640  -74.5315 C.ar      11 UNK        -0.0687 
     10 C10       -79.6296   29.5135  -75.7316 C.ar      11 UNK        -0.0823 
     11 C11       -78.6171   30.1310  -76.4743 C.ar      11 UNK        -0.0830 
     12 C12       -77.3058   30.1253  -75.9872 C.ar      11 UNK        -0.1021 
     13 C13       -76.9979   29.4877  -74.7805 C.ar      11 UNK        -0.0753 
     14 C14       -78.0192   28.8595  -74.0630 C.ar      11 UNK        -0.0933 
     15 C15       -75.5551   29.4304  -74.2943 C.3       11 UNK         0.0166 
     16 S16       -75.3090   30.1539  -72.6417 S.3       11 UNK        -0.2615 
     17 C17       -75.4354   28.6927  -71.5521 C.3       11 UNK        -0.0865 
     18 CA        -74.0522   28.1446  -71.1151 C.3       10 UNK         0.0862 
     19 C         -74.2037   27.1371  -69.9349 C.2       10 UNK         0.5551 
     20 N         -73.7665   25.8895  -70.0554 N.am      10 UNK        -0.7319 
     21 O         -74.7234   27.5011  -68.8831 O.2       10 UNK        -0.5018 
     22 N         -73.2876   27.6352  -72.2688 N.am      10 UNK        -0.4509 
     23 C         -71.9600   27.4663  -72.2998 C.2       10 UNK         0.4899 
     24 O         -71.2103   27.7625  -71.3693 O.2       10 UNK        -0.4839 
     25 CA        -71.3591   26.8367  -73.5699 C.3       9 UNK         0.0222 
     26 CB        -71.0738   25.3428  -73.3410 C.3       9 UNK        -0.1966 
     27 N         -72.1907   26.9841  -74.7694 N.am      9 UNK        -0.4218 
     28 C         -72.3112   28.1112  -75.4857 C.2       9 UNK         0.5020 
     29 O         -71.7959   29.1795  -75.1533 O.2       9 UNK        -0.5274 
     30 CA        -73.1527   28.0484  -76.7810 C.3       8 UNK         0.0270 
     31 CB        -72.5650   28.9316  -77.9018 C.3       8 UNK        -0.1976 
     32 N         -73.4315   26.6927  -77.2741 N.am      8 UNK        -0.4313 
     33 C         -72.5490   25.7838  -77.7199 C.2       8 UNK         0.5041 
     34 O         -71.3298   25.9520  -77.7375 O.2       8 UNK        -0.5577 
     35 CA        -73.1274   24.4545  -78.2228 C.3       7 UNK         0.0284 
     36 CB        -73.4586   23.5280  -77.0442 C.3       7 UNK        -0.1958 
     37 N         -74.3287   24.6742  -79.0291 N.am      7 UNK        -0.4454 
     38 C         -74.3186   24.8415  -80.3585 C.2       7 UNK         0.5089 
     39 O         -73.3085   24.7511  -81.0573 O.2       7 UNK        -0.5125 
     40 CA        -75.6646   25.1715  -81.0271 C.3       6 UNK         0.0408 
     41 CB        -76.4222   23.8812  -81.3785 C.3       6 UNK        -0.1791 
     42 N         -76.5203   26.0300  -80.2052 N.am      6 UNK        -0.4762 
     43 C         -76.2553   27.3086  -79.8958 C.2       6 UNK         0.5007 
     44 O         -75.2711   27.9222  -80.3075 O.2       6 UNK        -0.5032 
     45 CA        -77.2649   28.0283  -78.9776 C.3       5 UNK         0.0783 
     46 C46       -78.2111   28.9095  -79.8387 C.3       11 UNK        -0.0857 
     47 S47       -79.6695   29.6046  -78.9861 S.3       11 UNK        -0.2512 
     48 C48       -78.9468   30.7919  -77.8061 C.3       11 UNK         0.0225 
     49 N         -77.9886   27.1224  -78.0747 N.am      5 UNK        -0.4615 
     50 C         -77.4306   26.3662  -77.1196 C.2       4 UNK         0.5053 
     51 O         -76.2100   26.2486  -76.9694 O.2       4 UNK        -0.5105 
     52 CA        -78.4219   25.6405  -76.1913 C.3       4 UNK         0.0263 
     53 CB        -79.2642   24.5951  -76.9533 C.3       4 UNK        -0.1981 
     54 N         -77.7791   25.0668  -75.0023 N.am      4 UNK        -0.4224 
     55 C         -76.9674   24.0048  -74.9200 C.2       3 UNK         0.4895 
     56 O         -76.7190   23.2467  -75.8577 O.2       3 UNK        -0.5091 
     57 CA        -76.3061   23.7292  -73.5553 C.3       3 UNK         0.0250 
     58 CB        -75.0535   24.6090  -73.3672 C.3       3 UNK        -0.1996 
     59 N         -77.1920   23.8165  -72.3818 N.am      3 UNK        -0.4254 
     60 C         -77.7967   24.8964  -71.8667 C.2       2 UNK         0.5004 
     61 O         -77.7541   26.0159  -72.3773 O.2       2 UNK        -0.5226 
     62 CA        -78.5231   24.6929  -70.5283 C.3       2 UNK         0.0269 
     63 CB        -77.5099   24.7014  -69.3710 C.3       2 UNK        -0.1926 
     64 N         -79.5199   25.7348  -70.2753 N.am      2 UNK        -0.4687 
     65 C         -80.7422   25.7856  -70.8221 C.2       1 UNK         0.5165 
     66 O         -81.1581   24.9446  -71.6212 O.2       1 UNK        -0.5079 
     67 H67       -81.2565   28.6626  -66.2576 H         1 UNK         0.0900 
     68 H68       -80.1390   29.2578  -67.4866 H         1 UNK         0.0900 
     69 H69       -79.6887   27.8809  -66.4787 H         1 UNK         0.0900 
     70 H70       -80.7339   28.6349  -69.5616 H         1 UNK         0.2959 
     71 H71       -82.5747   26.4445  -70.0138 H         1 UNK         0.1079 
     72 H72       -82.9727   28.4433  -71.2536 H         1 UNK         0.0837 
     73 H73       -82.5307   27.2108  -72.3861 H         1 UNK         0.0837 
     74 H74       -80.0643   27.1088  -73.5400 H         1 UNK         0.0685 
     75 H75       -81.3093   28.0044  -74.3801 H         1 UNK         0.0685 
     76 H76       -80.6440   29.5150  -76.1068 H         1 UNK         0.1434 
     77 H77       -76.5206   30.6025  -76.5575 H         1 UNK         0.1329 
     78 H78       -77.8030   28.3604  -73.1334 H         1 UNK         0.1335 
     79 H79       -74.9082   29.9799  -74.9790 H         1 UNK         0.0680 
     80 H80       -75.2157   28.3948  -74.3098 H         1 UNK         0.0680 
     81 H81       -76.0065   27.9003  -72.0323 H         1 UNK         0.1032 
     82 H82       -76.0233   28.9986  -70.6843 H         1 UNK         0.1032 
     83 H83       -73.4886   28.9836  -70.7021 H         1 UNK         0.0461 
     84 H84       -73.3070   25.5889  -70.8974 H         1 UNK         0.3453 
     85 H85       -73.8634   25.2575  -69.2770 H         1 UNK         0.3453 
     86 H86       -73.8221   27.3691  -73.0791 H         1 UNK         0.2984 
     87 H87       -70.4050   27.3344  -73.7567 H         1 UNK         0.0554 
     88 H88       -70.4229   25.1977  -72.4774 H         1 UNK         0.0847 
     89 H89       -70.5688   24.8996  -74.1997 H         1 UNK         0.0847 
     90 H90       -71.9862   24.7749  -73.1582 H         1 UNK         0.0847 
     91 H91       -72.6249   26.1496  -75.1329 H         1 UNK         0.3141 
     92 H92       -74.1294   28.4603  -76.5330 H         1 UNK         0.0743 
     93 H93       -71.5545   28.6235  -78.1718 H         1 UNK         0.0784 
     94 H94       -73.1787   28.8919  -78.8015 H         1 UNK         0.0784 
     95 H95       -72.5142   29.9766  -77.5936 H         1 UNK         0.0784 
     96 H96       -74.4189   26.4362  -77.2588 H         1 UNK         0.3213 
     97 H97       -72.3611   23.9632  -78.8270 H         1 UNK         0.0855 
     98 H98       -72.5819   23.3576  -76.4177 H         1 UNK         0.0814 
     99 H99       -73.8049   22.5543  -77.3911 H         1 UNK         0.0814 
    100 H100      -74.2386   23.9510  -76.4140 H         1 UNK         0.0814 
    101 H101      -75.2015   24.7974  -78.5325 H         1 UNK         0.3105 
    102 H102      -75.4510   25.7034  -81.9568 H         1 UNK         0.0547 
    103 H103      -75.8134   23.2322  -82.0097 H         1 UNK         0.0837 
    104 H104      -76.6884   23.3111  -80.4875 H         1 UNK         0.0837 
    105 H105      -77.3391   24.0954  -81.9278 H         1 UNK         0.0837 
    106 H106      -77.3612   25.6163  -79.8287 H         1 UNK         0.3020 
    107 H107      -76.6739   28.6907  -78.3429 H         1 UNK         0.1245 
    108 H108      -78.6031   28.3303  -80.6775 H         1 UNK         0.0781 
    109 H109      -77.6516   29.7333  -80.2863 H         1 UNK         0.0781 
    110 H110      -79.6673   31.5913  -77.6284 H         1 UNK         0.0836 
    111 H111      -78.0680   31.2642  -78.2478 H         1 UNK         0.0836 
    112 H112      -78.9953   27.1853  -78.1230 H         1 UNK         0.3022 
    113 H113      -79.1064   26.3978  -75.8117 H         1 UNK         0.0747 
    114 H114      -79.9058   25.0701  -77.6959 H         1 UNK         0.0793 
    115 H115      -78.6415   23.8735  -77.4828 H         1 UNK         0.0793 
    116 H116      -79.9151   24.0421  -76.2760 H         1 UNK         0.0793 
    117 H117      -77.8682   25.6139  -74.1473 H         1 UNK         0.3047 
    118 H118      -75.9686   22.6916  -73.5833 H         1 UNK         0.0822 
    119 H119      -74.3314   24.4359  -74.1637 H         1 UNK         0.0807 
    120 H120      -74.5542   24.3834  -72.4257 H         1 UNK         0.0807 
    121 H121      -75.2987   25.6709  -73.3750 H         1 UNK         0.0807 
    122 H122      -77.3174   22.9408  -71.8927 H         1 UNK         0.2946 
    123 H123      -79.0290   23.7248  -70.5514 H         1 UNK         0.1144 
    124 H124      -77.9998   24.5248  -68.4132 H         1 UNK         0.0793 
    125 H125      -76.9810   25.6534  -69.3063 H         1 UNK         0.0793 
    126 H126      -76.7580   23.9212  -69.4965 H         1 UNK         0.0793 
    127 H127      -79.2466   26.4882  -69.6626 H         1 UNK         0.2896 
@<TRIPOS>BOND
     1    1    2 1    
     2    1   67 1    
     3    1   68 1    
     4    1   69 1    
     5    2    3 2    
     6    2    4 am   BACKBONE|DICT|INTERRES
     7    4    5 1    
     8    4   70 1    
     9    5    6 1    
    10    5   65 1    
    11    5   71 1    
    12    6    7 1    
    13    6   72 1    
    14    6   73 1    
    15    7    8 1    
    16    8    9 1    
    17    8   74 1    
    18    8   75 1    
    19    9   10 ar   
    20    9   14 ar   
    21   10   11 ar   
    22   10   76 1    
    23   11   12 ar   
    24   11   48 1    
    25   12   13 ar   
    26   12   77 1    
    27   13   14 ar   
    28   13   15 1    
    29   14   78 1    
    30   15   16 1    
    31   15   79 1    
    32   15   80 1    
    33   16   17 1    
    34   17   18 1    
    35   17   81 1    
    36   17   82 1    
    37   18   19 1    
    38   18   22 1    
    39   18   83 1    
    40   19   20 am   BACKBONE|DICT|INTERRES
    41   19   21 2    
    42   20   84 1    
    43   20   85 1    
    44   22   23 am   BACKBONE|DICT|INTERRES
    45   22   86 1    
    46   23   24 2    
    47   23   25 1    
    48   25   26 1    
    49   25   27 1    
    50   25   87 1    
    51   26   88 1    
    52   26   89 1    
    53   26   90 1    
    54   27   28 am   BACKBONE|DICT|INTERRES
    55   27   91 1    
    56   28   29 2    
    57   28   30 1    
    58   30   31 1    
    59   30   32 1    
    60   30   92 1    
    61   31   93 1    
    62   31   94 1    
    63   31   95 1    
    64   32   33 am   BACKBONE|DICT|INTERRES
    65   32   96 1    
    66   33   34 2    
    67   33   35 1    
    68   35   36 1    
    69   35   37 1    
    70   35   97 1    
    71   36   98 1    
    72   36   99 1    
    73   36  100 1    
    74   37   38 am   BACKBONE|DICT|INTERRES
    75   37  101 1    
    76   38   39 2    
    77   38   40 1    
    78   40   41 1    
    79   40   42 1    
    80   40  102 1    
    81   41  103 1    
    82   41  104 1    
    83   41  105 1    
    84   42   43 am   BACKBONE|DICT|INTERRES
    85   42  106 1    
    86   43   44 2    
    87   43   45 1    
    88   45   46 1    
    89   45   49 1    
    90   45  107 1    
    91   46   47 1    
    92   46  108 1    
    93   46  109 1    
    94   47   48 1    
    95   48  110 1    
    96   48  111 1    
    97   49   50 am   BACKBONE|DICT|INTERRES
    98   49  112 1    
    99   50   51 2    
   100   50   52 1    
   101   52   53 1    
   102   52   54 1    
   103   52  113 1    
   104   53  114 1    
   105   53  115 1    
   106   53  116 1    
   107   54   55 am   BACKBONE|DICT|INTERRES
   108   54  117 1    
   109   55   56 2    
   110   55   57 1    
   111   57   58 1    
   112   57   59 1    
   113   57  118 1    
   114   58  119 1    
   115   58  120 1    
   116   58  121 1    
   117   59   60 am   BACKBONE|DICT|INTERRES
   118   59  122 1    
   119   60   61 2    
   120   60   62 1    
   121   62   63 1    
   122   62   64 1    
   123   62  123 1    
   124   63  124 1    
   125   63  125 1    
   126   63  126 1    
   127   64   65 am   BACKBONE|DICT|INTERRES
   128   64  127 1    
   129   65   66 2    
@<TRIPOS>SUBSTRUCTURE
     1 UNK         1 GROUP             0       ****    0 ROOT    
