@<TRIPOS>MOLECULE
3R135
127   129    1
SMALL
USER_CHARGES


@<TRIPOS>ATOM
      1 CA        -83.3149   23.9512  -69.8814 C.3       0 UNK        -0.1998 
      2 C         -83.2772   24.9649  -71.0153 C.2       0 UNK         0.4909 
      3 O         -84.2612   25.1062  -71.7429 O.2       0 UNK        -0.5240 
      4 N         -82.1532   25.6773  -71.1647 N.am      1 UNK        -0.4739 
      5 CA        -81.9120   26.6342  -72.2499 C.3       1 UNK         0.0864 
      6 C6        -80.7943   27.6337  -71.8656 C.3       11 UNK        -0.0881 
      7 S7        -80.9451   29.2408  -72.7179 S.3       11 UNK        -0.2682 
      8 C8        -79.6873   30.2328  -71.8461 C.3       11 UNK         0.0289 
      9 C9        -78.2773   29.8209  -72.2428 C.ar      11 UNK        -0.0687 
     10 C10       -77.6303   28.7881  -71.5593 C.ar      11 UNK        -0.0823 
     11 C11       -76.3740   28.3369  -71.9744 C.ar      11 UNK        -0.0830 
     12 C12       -75.7297   28.9869  -73.0303 C.ar      11 UNK        -0.1021 
     13 C13       -76.3422   30.0569  -73.6894 C.ar      11 UNK        -0.0753 
     14 C14       -77.6253   30.4572  -73.3038 C.ar      11 UNK        -0.0933 
     15 C15       -75.6275   30.7608  -74.8350 C.3       11 UNK         0.0166 
     16 S16       -75.0585   32.4310  -74.3819 S.3       11 UNK        -0.2615 
     17 C17       -73.8246   32.0999  -73.0739 C.3       11 UNK        -0.0865 
     18 CA        -72.3540   32.2838  -73.5593 C.3       10 UNK         0.0862 
     19 C         -71.2946   32.2724  -72.4109 C.2       10 UNK         0.5551 
     20 N         -71.6351   32.7272  -71.2116 N.am      10 UNK        -0.7319 
     21 O         -70.1358   31.9109  -72.6101 O.2       10 UNK        -0.5018 
     22 N         -72.0043   31.3826  -74.6727 N.am      10 UNK        -0.4509 
     23 C         -71.9035   30.0479  -74.6070 C.2       10 UNK         0.4899 
     24 O         -72.1642   29.3887  -73.5982 O.2       10 UNK        -0.4839 
     25 CA        -71.4817   29.3514  -75.9160 C.3       9 UNK         0.0222 
     26 CB        -70.0933   29.8186  -76.4061 C.3       9 UNK        -0.1966 
     27 N         -71.5629   27.8863  -75.8412 N.am      9 UNK        -0.4218 
     28 C         -70.7896   27.0386  -75.1406 C.2       9 UNK         0.5020 
     29 O         -69.7877   27.3803  -74.5097 O.2       9 UNK        -0.5274 
     30 CA        -71.1885   25.5477  -75.1237 C.3       8 UNK         0.0270 
     31 CB        -71.5268   25.0957  -73.6920 C.3       8 UNK        -0.1976 
     32 N         -72.3222   25.2400  -76.0007 N.am      8 UNK        -0.4313 
     33 C         -72.2224   25.0059  -77.3184 C.2       8 UNK         0.5041 
     34 O         -71.1473   24.9431  -77.9161 O.2       8 UNK        -0.5577 
     35 CA        -73.5300   24.8387  -78.1215 C.3       7 UNK         0.0284 
     36 CB        -73.8357   23.3475  -78.3351 C.3       7 UNK        -0.1958 
     37 N         -74.6976   25.4917  -77.5186 N.am      7 UNK        -0.4454 
     38 C         -74.7894   26.8006  -77.2431 C.2       7 UNK         0.5089 
     39 O         -73.9361   27.6242  -77.5718 O.2       7 UNK        -0.5125 
     40 CA        -75.9753   27.2725  -76.3861 C.3       6 UNK         0.0408 
     41 CB        -77.0483   27.9576  -77.2424 C.3       6 UNK        -0.1791 
     42 N         -76.5837   26.2407  -75.5392 N.am      6 UNK        -0.4762 
     43 C         -75.9423   25.5779  -74.5617 C.2       6 UNK         0.5007 
     44 O         -74.7300   25.6619  -74.3653 O.2       6 UNK        -0.5032 
     45 CA        -76.7926   24.6597  -73.6685 C.3       5 UNK         0.0783 
     46 C46       -77.6357   25.4797  -72.6627 C.3       11 UNK        -0.0857 
     47 S47       -76.8201   25.7105  -71.0440 S.3       11 UNK        -0.2512 
     48 C48       -75.7075   27.1403  -71.3039 C.3       11 UNK         0.0225 
     49 N         -77.6311   23.8048  -74.5060 N.am      5 UNK        -0.4615 
     50 C         -77.2717   22.5882  -74.9345 C.2       4 UNK         0.5053 
     51 O         -76.2409   22.0126  -74.5853 O.2       4 UNK        -0.5105 
     52 CA        -78.2090   21.8979  -75.9411 C.3       4 UNK         0.0263 
     53 CB        -79.2547   21.0464  -75.2034 C.3       4 UNK        -0.1981 
     54 N         -78.8934   22.8313  -76.8391 N.am      4 UNK        -0.4224 
     55 C         -78.2849   23.6705  -77.6897 C.2       3 UNK         0.4895 
     56 O         -77.0655   23.7368  -77.8396 O.2       3 UNK        -0.5091 
     57 CA        -79.1879   24.6292  -78.4811 C.3       3 UNK         0.0250 
     58 CB        -79.5988   23.9912  -79.8176 C.3       3 UNK        -0.1996 
     59 N         -80.3901   25.0684  -77.7628 N.am      3 UNK        -0.4254 
     60 C         -80.4314   25.6745  -76.5657 C.2       2 UNK         0.5004 
     61 O         -79.4291   25.9149  -75.8857 O.2       2 UNK        -0.5226 
     62 CA        -81.8376   26.0893  -76.0828 C.3       2 UNK         0.0269 
     63 CB        -82.8839   24.9684  -76.2859 C.3       2 UNK        -0.1926 
     64 N         -81.8905   26.5780  -74.6982 N.am      2 UNK        -0.4687 
     65 C         -81.6155   25.8959  -73.5772 C.2       1 UNK         0.5165 
     66 O         -81.1692   24.7443  -73.5582 O.2       1 UNK        -0.5079 
     67 H67       -83.4769   22.9499  -70.2795 H         1 UNK         0.0900 
     68 H68       -82.3864   23.9427  -69.3106 H         1 UNK         0.0900 
     69 H69       -84.1310   24.1828  -69.1975 H         1 UNK         0.0900 
     70 H70       -81.3656   25.4894  -70.5614 H         1 UNK         0.2959 
     71 H71       -82.8397   27.1957  -72.3859 H         1 UNK         0.1079 
     72 H72       -80.8329   27.8408  -70.7946 H         1 UNK         0.0837 
     73 H73       -79.8121   27.2051  -72.0520 H         1 UNK         0.0837 
     74 H74       -79.8456   31.2861  -72.0823 H         1 UNK         0.0685 
     75 H75       -79.8237   30.1398  -70.7675 H         1 UNK         0.0685 
     76 H76       -78.1270   28.2993  -70.7328 H         1 UNK         0.1434 
     77 H77       -74.7500   28.6536  -73.3463 H         1 UNK         0.1329 
     78 H78       -78.1146   31.2650  -73.8307 H         1 UNK         0.1335 
     79 H79       -76.3064   30.8387  -75.6854 H         1 UNK         0.0680 
     80 H80       -74.7746   30.1772  -75.1814 H         1 UNK         0.0680 
     81 H81       -73.9683   31.1068  -72.6489 H         1 UNK         0.1032 
     82 H82       -74.0552   32.7981  -72.2691 H         1 UNK         0.1032 
     83 H83       -72.2784   33.2874  -73.9792 H         1 UNK         0.0461 
     84 H84       -70.9396   32.7386  -70.4818 H         1 UNK         0.3453 
     85 H85       -72.5640   33.0655  -71.0192 H         1 UNK         0.3453 
     86 H86       -71.7672   31.8429  -75.5390 H         1 UNK         0.2984 
     87 H87       -72.2141   29.6410  -76.6710 H         1 UNK         0.0554 
     88 H88       -69.7764   29.2639  -77.2893 H         1 UNK         0.0847 
     89 H89       -69.3277   29.6944  -75.6395 H         1 UNK         0.0847 
     90 H90       -70.1035   30.8739  -76.6791 H         1 UNK         0.0847 
     91 H91       -72.3603   27.4961  -76.3327 H         1 UNK         0.3141 
     92 H92       -70.3197   24.9764  -75.4574 H         1 UNK         0.0743 
     93 H93       -72.3292   25.6943  -73.2592 H         1 UNK         0.0784 
     94 H94       -71.8331   24.0499  -73.6641 H         1 UNK         0.0784 
     95 H95       -70.6606   25.1972  -73.0369 H         1 UNK         0.0784 
     96 H96       -73.2439   25.2922  -75.5718 H         1 UNK         0.3213 
     97 H97       -73.3672   25.2987  -79.0984 H         1 UNK         0.0855 
     98 H98       -74.0876   22.8496  -77.3976 H         1 UNK         0.0814 
     99 H99       -72.9777   22.8271  -78.7632 H         1 UNK         0.0814 
    100 H100      -74.6701   23.2092  -79.0227 H         1 UNK         0.0814 
    101 H101      -75.4806   24.8914  -77.2771 H         1 UNK         0.3105 
    102 H102      -75.5736   28.0226  -75.7067 H         1 UNK         0.0547 
    103 H103      -76.6268   28.8008  -77.7911 H         1 UNK         0.0837 
    104 H104      -77.4747   27.2766  -77.9751 H         1 UNK         0.0837 
    105 H105      -77.8605   28.3454  -76.6268 H         1 UNK         0.0837 
    106 H106      -77.5882   26.1077  -75.6436 H         1 UNK         0.3020 
    107 H107      -76.1027   24.0277  -73.1039 H         1 UNK         0.1245 
    108 H108      -78.5631   24.9475  -72.4442 H         1 UNK         0.0781 
    109 H109      -77.9551   26.4343  -73.0827 H         1 UNK         0.0781 
    110 H110      -74.8481   26.8045  -71.8863 H         1 UNK         0.0836 
    111 H111      -75.3131   27.4565  -70.3376 H         1 UNK         0.0836 
    112 H112      -78.4813   24.2230  -74.8655 H         1 UNK         0.3022 
    113 H113      -77.5972   21.2364  -76.5581 H         1 UNK         0.0747 
    114 H114      -79.8708   20.4795  -75.9016 H         1 UNK         0.0793 
    115 H115      -78.7735   20.3260  -74.5402 H         1 UNK         0.0793 
    116 H116      -79.9167   21.6613  -74.5915 H         1 UNK         0.0793 
    117 H117      -79.9007   22.8613  -76.7823 H         1 UNK         0.3047 
    118 H118      -78.5991   25.5176  -78.7055 H         1 UNK         0.0822 
    119 H119      -80.1455   24.6963  -80.4440 H         1 UNK         0.0807 
    120 H120      -80.2282   23.1125  -79.6708 H         1 UNK         0.0807 
    121 H121      -78.7220   23.6726  -80.3837 H         1 UNK         0.0807 
    122 H122      -81.2653   24.9216  -78.2446 H         1 UNK         0.2946 
    123 H123      -82.1287   26.9362  -76.7066 H         1 UNK         0.1144 
    124 H124      -83.0391   24.7433  -77.3413 H         1 UNK         0.0793 
    125 H125      -83.8549   25.2582  -75.8836 H         1 UNK         0.0793 
    126 H126      -82.5864   24.0418  -75.7931 H         1 UNK         0.0793 
    127 H127      -82.1746   27.5429  -74.5957 H         1 UNK         0.2896 
@<TRIPOS>BOND
     1    1    2 1    
     2    1   67 1    
     3    1   68 1    
     4    1   69 1    
     5    2    3 2    
     6    2    4 am   BACKBONE|DICT|INTERRES
     7    4    5 1    
     8    4   70 1    
     9    5    6 1    
    10    5   65 1    
    11    5   71 1    
    12    6    7 1    
    13    6   72 1    
    14    6   73 1    
    15    7    8 1    
    16    8    9 1    
    17    8   74 1    
    18    8   75 1    
    19    9   10 ar   
    20    9   14 ar   
    21   10   11 ar   
    22   10   76 1    
    23   11   12 ar   
    24   11   48 1    
    25   12   13 ar   
    26   12   77 1    
    27   13   14 ar   
    28   13   15 1    
    29   14   78 1    
    30   15   16 1    
    31   15   79 1    
    32   15   80 1    
    33   16   17 1    
    34   17   18 1    
    35   17   81 1    
    36   17   82 1    
    37   18   19 1    
    38   18   22 1    
    39   18   83 1    
    40   19   20 am   BACKBONE|DICT|INTERRES
    41   19   21 2    
    42   20   84 1    
    43   20   85 1    
    44   22   23 am   BACKBONE|DICT|INTERRES
    45   22   86 1    
    46   23   24 2    
    47   23   25 1    
    48   25   26 1    
    49   25   27 1    
    50   25   87 1    
    51   26   88 1    
    52   26   89 1    
    53   26   90 1    
    54   27   28 am   BACKBONE|DICT|INTERRES
    55   27   91 1    
    56   28   29 2    
    57   28   30 1    
    58   30   31 1    
    59   30   32 1    
    60   30   92 1    
    61   31   93 1    
    62   31   94 1    
    63   31   95 1    
    64   32   33 am   BACKBONE|DICT|INTERRES
    65   32   96 1    
    66   33   34 2    
    67   33   35 1    
    68   35   36 1    
    69   35   37 1    
    70   35   97 1    
    71   36   98 1    
    72   36   99 1    
    73   36  100 1    
    74   37   38 am   BACKBONE|DICT|INTERRES
    75   37  101 1    
    76   38   39 2    
    77   38   40 1    
    78   40   41 1    
    79   40   42 1    
    80   40  102 1    
    81   41  103 1    
    82   41  104 1    
    83   41  105 1    
    84   42   43 am   BACKBONE|DICT|INTERRES
    85   42  106 1    
    86   43   44 2    
    87   43   45 1    
    88   45   46 1    
    89   45   49 1    
    90   45  107 1    
    91   46   47 1    
    92   46  108 1    
    93   46  109 1    
    94   47   48 1    
    95   48  110 1    
    96   48  111 1    
    97   49   50 am   BACKBONE|DICT|INTERRES
    98   49  112 1    
    99   50   51 2    
   100   50   52 1    
   101   52   53 1    
   102   52   54 1    
   103   52  113 1    
   104   53  114 1    
   105   53  115 1    
   106   53  116 1    
   107   54   55 am   BACKBONE|DICT|INTERRES
   108   54  117 1    
   109   55   56 2    
   110   55   57 1    
   111   57   58 1    
   112   57   59 1    
   113   57  118 1    
   114   58  119 1    
   115   58  120 1    
   116   58  121 1    
   117   59   60 am   BACKBONE|DICT|INTERRES
   118   59  122 1    
   119   60   61 2    
   120   60   62 1    
   121   62   63 1    
   122   62   64 1    
   123   62  123 1    
   124   63  124 1    
   125   63  125 1    
   126   63  126 1    
   127   64   65 am   BACKBONE|DICT|INTERRES
   128   64  127 1    
   129   65   66 2    
@<TRIPOS>SUBSTRUCTURE
     1 UNK         1 GROUP             0       ****    0 ROOT    
