@<TRIPOS>MOLECULE
3R135
127   129    1
SMALL
USER_CHARGES


@<TRIPOS>ATOM
      1 CA        -80.7585   21.4544  -70.3927 C.3       0 UNK        -0.1998 
      2 C         -81.4666   22.6821  -70.9459 C.2       0 UNK         0.4909 
      3 O         -82.6978   22.7251  -70.9605 O.2       0 UNK        -0.5240 
      4 N         -80.6972   23.6836  -71.3895 N.am      1 UNK        -0.4739 
      5 CA        -81.1972   24.9199  -72.0042 C.3       1 UNK         0.0864 
      6 C6        -80.1117   26.0274  -72.0888 C.3       11 UNK        -0.0881 
      7 S7        -79.1142   26.2429  -70.5736 S.3       11 UNK        -0.2682 
      8 C8        -77.4516   26.5259  -71.2729 C.3       11 UNK         0.0289 
      9 C9        -77.2200   27.9883  -71.6366 C.ar      11 UNK        -0.0687 
     10 C10       -77.9450   28.5910  -72.6694 C.ar      11 UNK        -0.0823 
     11 C11       -77.7305   29.9287  -73.0099 C.ar      11 UNK        -0.0830 
     12 C12       -76.7728   30.6686  -72.3110 C.ar      11 UNK        -0.1021 
     13 C13       -76.0362   30.0794  -71.2791 C.ar      11 UNK        -0.0753 
     14 C14       -76.2660   28.7413  -70.9449 C.ar      11 UNK        -0.0933 
     15 C15       -75.0002   30.8889  -70.5140 C.3       11 UNK         0.0166 
     16 S16       -73.3235   30.6211  -71.1655 S.3       11 UNK        -0.2615 
     17 C17       -73.4133   31.5180  -72.7571 C.3       11 UNK        -0.0865 
     18 CA        -72.0351   31.7346  -73.4369 C.3       10 UNK         0.0862 
     19 C         -71.1677   32.7957  -72.7000 C.2       10 UNK         0.5551 
     20 N         -71.4877   34.0723  -72.8645 N.am      10 UNK        -0.7319 
     21 O         -70.2315   32.4793  -71.9673 O.2       10 UNK        -0.5018 
     22 N         -71.3541   30.4520  -73.6444 N.am      10 UNK        -0.4509 
     23 C         -70.2864   30.2436  -74.4236 C.2       10 UNK         0.4899 
     24 O         -69.7632   31.1110  -75.1239 O.2       10 UNK        -0.4839 
     25 CA        -69.7066   28.8160  -74.4330 C.3       9 UNK         0.0222 
     26 CB        -68.4992   28.7244  -73.4855 C.3       9 UNK        -0.1966 
     27 N         -70.6881   27.7863  -74.0687 N.am      9 UNK        -0.4218 
     28 C         -71.7184   27.4148  -74.8412 C.2       9 UNK         0.5020 
     29 O         -71.9374   27.8788  -75.9626 O.2       9 UNK        -0.5274 
     30 CA        -72.6862   26.3858  -74.2290 C.3       8 UNK         0.0270 
     31 CB        -73.8176   27.1050  -73.4715 C.3       8 UNK        -0.1976 
     32 N         -73.2781   25.5042  -75.2365 N.am      8 UNK        -0.4313 
     33 C         -72.6067   24.6420  -76.0126 C.2       8 UNK         0.5041 
     34 O         -71.3959   24.4319  -75.9208 O.2       8 UNK        -0.5577 
     35 CA        -73.4236   23.8750  -77.0653 C.3       7 UNK         0.0284 
     36 CB        -74.0509   22.6110  -76.4533 C.3       7 UNK        -0.1958 
     37 N         -74.4735   24.7082  -77.6560 N.am      7 UNK        -0.4454 
     38 C         -74.2890   25.5497  -78.6834 C.2       7 UNK         0.5089 
     39 O         -73.2205   25.6732  -79.2827 O.2       7 UNK        -0.5125 
     40 CA        -75.5016   26.3850  -79.1380 C.3       6 UNK         0.0408 
     41 CB        -76.1968   25.7128  -80.3324 C.3       6 UNK        -0.1791 
     42 N         -76.4776   26.6028  -78.0661 N.am      6 UNK        -0.4762 
     43 C         -76.3104   27.4913  -77.0717 C.2       6 UNK         0.5007 
     44 O         -75.3538   28.2625  -77.0137 O.2       6 UNK        -0.5032 
     45 CA        -77.3528   27.4928  -75.9268 C.3       5 UNK         0.0783 
     46 C46       -78.4360   28.5815  -76.1325 C.3       11 UNK        -0.0857 
     47 S47       -77.8417   30.2690  -75.7637 S.3       11 UNK        -0.2512 
     48 C48       -78.5491   30.5812  -74.1151 C.3       11 UNK         0.0225 
     49 N         -77.9629   26.1735  -75.7163 N.am      5 UNK        -0.4615 
     50 C         -77.2794   25.0699  -75.3767 C.2       4 UNK         0.5053 
     51 O         -76.0901   25.0917  -75.0670 O.2       4 UNK        -0.5105 
     52 CA        -77.9903   23.7058  -75.4697 C.3       4 UNK         0.0263 
     53 CB        -78.1617   23.0748  -74.0806 C.3       4 UNK        -0.1981 
     54 N         -79.2762   23.7450  -76.1767 N.am      4 UNK        -0.4224 
     55 C         -79.4042   24.0215  -77.4857 C.2       3 UNK         0.4895 
     56 O         -78.4431   24.2446  -78.2228 O.2       3 UNK        -0.5091 
     57 CA        -80.8246   24.1244  -78.0725 C.3       3 UNK         0.0250 
     58 CB        -81.2022   22.8172  -78.7869 C.3       3 UNK        -0.1996 
     59 N         -81.8666   24.4593  -77.0972 N.am      3 UNK        -0.4254 
     60 C         -81.9050   25.5656  -76.3408 C.2       2 UNK         0.5004 
     61 O         -81.0479   26.4507  -76.3808 O.2       2 UNK        -0.5226 
     62 CA        -83.0510   25.6790  -75.3137 C.3       2 UNK         0.0269 
     63 CB        -84.1856   24.6463  -75.5078 C.3       2 UNK        -0.1926 
     64 N         -82.5363   25.6217  -73.9383 N.am      2 UNK        -0.4687 
     65 C         -81.7624   24.6560  -73.4177 C.2       1 UNK         0.5165 
     66 O         -81.4292   23.6400  -74.0370 O.2       1 UNK        -0.5079 
     67 H67       -81.0464   21.2905  -69.3546 H         1 UNK         0.0900 
     68 H68       -81.0360   20.5715  -70.9678 H         1 UNK         0.0900 
     69 H69       -79.6741   21.5570  -70.4320 H         1 UNK         0.0900 
     70 H70       -79.6930   23.6007  -71.3368 H         1 UNK         0.2959 
     71 H71       -82.0153   25.2867  -71.3800 H         1 UNK         0.1079 
     72 H72       -79.4383   25.8331  -72.9246 H         1 UNK         0.0837 
     73 H73       -80.5840   26.9870  -72.3063 H         1 UNK         0.0837 
     74 H74       -76.7172   26.2026  -70.5336 H         1 UNK         0.0685 
     75 H75       -77.2869   25.8958  -72.1482 H         1 UNK         0.0685 
     76 H76       -78.6796   28.0213  -73.2155 H         1 UNK         0.1434 
     77 H77       -76.6013   31.7048  -72.5689 H         1 UNK         0.1329 
     78 H78       -75.6948   28.2870  -70.1467 H         1 UNK         0.1335 
     79 H79       -75.2416   31.9527  -70.5418 H         1 UNK         0.0680 
     80 H80       -75.0173   30.6020  -69.4615 H         1 UNK         0.0680 
     81 H81       -74.0575   30.9470  -73.4281 H         1 UNK         0.1032 
     82 H82       -73.9201   32.4729  -72.6063 H         1 UNK         0.1032 
     83 H83       -72.2297   32.1369  -74.4333 H         1 UNK         0.0461 
     84 H84       -72.2515   34.3480  -73.4619 H         1 UNK         0.3453 
     85 H85       -70.9460   34.7772  -72.3890 H         1 UNK         0.3453 
     86 H86       -71.6890   29.6904  -73.0746 H         1 UNK         0.2984 
     87 H87       -69.3590   28.6089  -75.4474 H         1 UNK         0.0554 
     88 H88       -67.7374   29.4578  -73.7541 H         1 UNK         0.0847 
     89 H89       -68.0295   27.7417  -73.5317 H         1 UNK         0.0847 
     90 H90       -68.7818   28.9159  -72.4494 H         1 UNK         0.0847 
     91 H91       -70.5782   27.3547  -73.1618 H         1 UNK         0.3141 
     92 H92       -72.1353   25.7576  -73.5261 H         1 UNK         0.0743 
     93 H93       -74.3939   27.7543  -74.1324 H         1 UNK         0.0784 
     94 H94       -74.5092   26.3951  -73.0171 H         1 UNK         0.0784 
     95 H95       -73.4234   27.7289  -72.6684 H         1 UNK         0.0784 
     96 H96       -74.2888   25.5477  -75.3337 H         1 UNK         0.3213 
     97 H97       -72.7369   23.5588  -77.8540 H         1 UNK         0.0855 
     98 H98       -74.7240   22.8457  -75.6284 H         1 UNK         0.0814 
     99 H99       -73.2786   21.9482  -76.0607 H         1 UNK         0.0814 
    100 H100      -74.6138   22.0466  -77.1969 H         1 UNK         0.0814 
    101 H101      -75.3734   24.7023  -77.1976 H         1 UNK         0.3105 
    102 H102      -75.1288   27.3559  -79.4716 H         1 UNK         0.0547 
    103 H103      -75.5079   25.6028  -81.1710 H         1 UNK         0.0837 
    104 H104      -76.5620   24.7165  -80.0810 H         1 UNK         0.0837 
    105 H105      -77.0434   26.3022  -80.6844 H         1 UNK         0.0837 
    106 H106      -77.2786   25.9792  -78.0499 H         1 UNK         0.3020 
    107 H107      -76.7971   27.7245  -75.0161 H         1 UNK         0.1245 
    108 H108      -79.3006   28.3790  -75.4993 H         1 UNK         0.0781 
    109 H109      -78.8216   28.5589  -77.1537 H         1 UNK         0.0781 
    110 H110      -79.5843   30.2384  -74.0767 H         1 UNK         0.0836 
    111 H111      -78.5889   31.6600  -73.9565 H         1 UNK         0.0836 
    112 H112      -78.9416   26.0881  -75.9679 H         1 UNK         0.3022 
    113 H113      -77.3302   23.0520  -76.0437 H         1 UNK         0.0747 
    114 H114      -78.6266   22.0909  -74.1441 H         1 UNK         0.0793 
    115 H115      -77.1962   22.9465  -73.5892 H         1 UNK         0.0793 
    116 H116      -78.7746   23.6927  -73.4301 H         1 UNK         0.0793 
    117 H117      -80.1114   23.5998  -75.6168 H         1 UNK         0.3047 
    118 H118      -80.8050   24.9262  -78.8137 H         1 UNK         0.0822 
    119 H119      -82.1605   22.9059  -79.2991 H         1 UNK         0.0807 
    120 H120      -81.2684   21.9808  -78.0898 H         1 UNK         0.0807 
    121 H121      -80.4582   22.5550  -79.5408 H         1 UNK         0.0807 
    122 H122      -82.5924   23.7708  -76.9601 H         1 UNK         0.2946 
    123 H123      -83.4796   26.6731  -75.4533 H         1 UNK         0.1144 
    124 H124      -85.0045   24.8365  -74.8139 H         1 UNK         0.0793 
    125 H125      -83.8512   23.6217  -75.3409 H         1 UNK         0.0793 
    126 H126      -84.6048   24.7028  -76.5135 H         1 UNK         0.0793 
    127 H127      -82.7283   26.4381  -73.3741 H         1 UNK         0.2896 
@<TRIPOS>BOND
     1    1    2 1    
     2    1   67 1    
     3    1   68 1    
     4    1   69 1    
     5    2    3 2    
     6    2    4 am   BACKBONE|DICT|INTERRES
     7    4    5 1    
     8    4   70 1    
     9    5    6 1    
    10    5   65 1    
    11    5   71 1    
    12    6    7 1    
    13    6   72 1    
    14    6   73 1    
    15    7    8 1    
    16    8    9 1    
    17    8   74 1    
    18    8   75 1    
    19    9   10 ar   
    20    9   14 ar   
    21   10   11 ar   
    22   10   76 1    
    23   11   12 ar   
    24   11   48 1    
    25   12   13 ar   
    26   12   77 1    
    27   13   14 ar   
    28   13   15 1    
    29   14   78 1    
    30   15   16 1    
    31   15   79 1    
    32   15   80 1    
    33   16   17 1    
    34   17   18 1    
    35   17   81 1    
    36   17   82 1    
    37   18   19 1    
    38   18   22 1    
    39   18   83 1    
    40   19   20 am   BACKBONE|DICT|INTERRES
    41   19   21 2    
    42   20   84 1    
    43   20   85 1    
    44   22   23 am   BACKBONE|DICT|INTERRES
    45   22   86 1    
    46   23   24 2    
    47   23   25 1    
    48   25   26 1    
    49   25   27 1    
    50   25   87 1    
    51   26   88 1    
    52   26   89 1    
    53   26   90 1    
    54   27   28 am   BACKBONE|DICT|INTERRES
    55   27   91 1    
    56   28   29 2    
    57   28   30 1    
    58   30   31 1    
    59   30   32 1    
    60   30   92 1    
    61   31   93 1    
    62   31   94 1    
    63   31   95 1    
    64   32   33 am   BACKBONE|DICT|INTERRES
    65   32   96 1    
    66   33   34 2    
    67   33   35 1    
    68   35   36 1    
    69   35   37 1    
    70   35   97 1    
    71   36   98 1    
    72   36   99 1    
    73   36  100 1    
    74   37   38 am   BACKBONE|DICT|INTERRES
    75   37  101 1    
    76   38   39 2    
    77   38   40 1    
    78   40   41 1    
    79   40   42 1    
    80   40  102 1    
    81   41  103 1    
    82   41  104 1    
    83   41  105 1    
    84   42   43 am   BACKBONE|DICT|INTERRES
    85   42  106 1    
    86   43   44 2    
    87   43   45 1    
    88   45   46 1    
    89   45   49 1    
    90   45  107 1    
    91   46   47 1    
    92   46  108 1    
    93   46  109 1    
    94   47   48 1    
    95   48  110 1    
    96   48  111 1    
    97   49   50 am   BACKBONE|DICT|INTERRES
    98   49  112 1    
    99   50   51 2    
   100   50   52 1    
   101   52   53 1    
   102   52   54 1    
   103   52  113 1    
   104   53  114 1    
   105   53  115 1    
   106   53  116 1    
   107   54   55 am   BACKBONE|DICT|INTERRES
   108   54  117 1    
   109   55   56 2    
   110   55   57 1    
   111   57   58 1    
   112   57   59 1    
   113   57  118 1    
   114   58  119 1    
   115   58  120 1    
   116   58  121 1    
   117   59   60 am   BACKBONE|DICT|INTERRES
   118   59  122 1    
   119   60   61 2    
   120   60   62 1    
   121   62   63 1    
   122   62   64 1    
   123   62  123 1    
   124   63  124 1    
   125   63  125 1    
   126   63  126 1    
   127   64   65 am   BACKBONE|DICT|INTERRES
   128   64  127 1    
   129   65   66 2    
@<TRIPOS>SUBSTRUCTURE
     1 UNK         1 GROUP             0       ****    0 ROOT    
