@<TRIPOS>MOLECULE
3R135
127   129    1
SMALL
USER_CHARGES


@<TRIPOS>ATOM
      1 CA        -84.5424   31.0343  -76.3531 C.3       0 UNK        -0.1998 
      2 C         -83.2034   30.3290  -76.1960 C.2       0 UNK         0.4909 
      3 O         -82.3393   30.4602  -77.0629 O.2       0 UNK        -0.5240 
      4 N         -83.0255   29.5907  -75.0922 N.am      1 UNK        -0.4739 
      5 CA        -81.8291   28.7987  -74.7874 C.3       1 UNK         0.0864 
      6 C6        -81.8226   28.3777  -73.2938 C.3       11 UNK        -0.0881 
      7 S7        -80.3780   27.3766  -72.8138 S.3       11 UNK        -0.2682 
      8 C8        -79.4479   28.5267  -71.7536 C.3       11 UNK         0.0289 
      9 C9        -78.0982   27.9473  -71.3481 C.ar      11 UNK        -0.0687 
     10 C10       -78.0248   26.6958  -70.7309 C.ar      11 UNK        -0.0823 
     11 C11       -76.7898   26.1448  -70.3853 C.ar      11 UNK        -0.0830 
     12 C12       -75.6212   26.8727  -70.6198 C.ar      11 UNK        -0.1021 
     13 C13       -75.6730   28.1350  -71.2187 C.ar      11 UNK        -0.0753 
     14 C14       -76.9197   28.6593  -71.5922 C.ar      11 UNK        -0.0933 
     15 C15       -74.3544   28.8580  -71.4944 C.3       11 UNK         0.0166 
     16 S16       -74.4981   30.6587  -71.7745 S.3       11 UNK        -0.2615 
     17 C17       -73.0987   30.9208  -72.9117 C.3       11 UNK        -0.0865 
     18 CA        -73.4645   30.5217  -74.3711 C.3       10 UNK         0.0862 
     19 C         -74.2360   31.5942  -75.1865 C.2       10 UNK         0.5551 
     20 N         -74.7476   31.2154  -76.3508 N.am      10 UNK        -0.7319 
     21 O         -74.3651   32.7499  -74.7896 O.2       10 UNK        -0.5018 
     22 N         -72.3283   29.9731  -75.1199 N.am      10 UNK        -0.4509 
     23 C         -71.1774   30.6011  -75.3935 C.2       10 UNK         0.4899 
     24 O         -70.9161   31.7432  -75.0131 O.2       10 UNK        -0.4839 
     25 CA        -70.1438   29.8296  -76.2437 C.3       9 UNK         0.0222 
     26 CB        -68.6899   30.2153  -75.8970 C.3       9 UNK        -0.1966 
     27 N         -70.3155   28.3696  -76.2206 N.am      9 UNK        -0.4218 
     28 C         -70.2416   27.5439  -75.1660 C.2       9 UNK         0.5020 
     29 O         -69.9765   27.9126  -74.0205 O.2       9 UNK        -0.5274 
     30 CA        -70.5545   26.0602  -75.4489 C.3       8 UNK         0.0270 
     31 CB        -70.4755   25.1833  -74.1849 C.3       8 UNK        -0.1976 
     32 N         -71.8746   25.8895  -76.0659 N.am      8 UNK        -0.4313 
     33 C         -72.1613   26.1127  -77.3578 C.2       8 UNK         0.5041 
     34 O         -71.3239   26.5036  -78.1728 O.2       8 UNK        -0.5577 
     35 CA        -73.6127   25.9010  -77.8242 C.3       7 UNK         0.0284 
     36 CB        -73.7467   24.5609  -78.5640 C.3       7 UNK        -0.1958 
     37 N         -74.5833   25.9608  -76.7281 N.am      7 UNK        -0.4454 
     38 C         -74.9398   27.0957  -76.1060 C.2       7 UNK         0.5089 
     39 O         -74.5262   28.2065  -76.4422 O.2       7 UNK        -0.5125 
     40 CA        -75.8898   26.9878  -74.8974 C.3       6 UNK         0.0408 
     41 CB        -77.2991   27.4570  -75.2819 C.3       6 UNK        -0.1791 
     42 N         -75.9532   25.6421  -74.3155 N.am      6 UNK        -0.4762 
     43 C         -74.9347   25.0617  -73.6586 C.2       6 UNK         0.5007 
     44 O         -73.8674   25.6360  -73.4411 O.2       6 UNK        -0.5032 
     45 CA        -75.0666   23.5755  -73.2545 C.3       5 UNK         0.0783 
     46 C46       -75.1875   23.3650  -71.7214 C.3       11 UNK        -0.0857 
     47 S47       -76.8878   23.4705  -71.0563 S.3       11 UNK        -0.2512 
     48 C48       -76.7295   24.7549  -69.7762 C.3       11 UNK         0.0225 
     49 N         -76.0916   22.8439  -74.0053 N.am      5 UNK        -0.4615 
     50 C         -76.0631   22.6119  -75.3232 C.2       4 UNK         0.5053 
     51 O         -75.1388   22.9670  -76.0532 O.2       4 UNK        -0.5105 
     52 CA        -77.2844   21.9067  -75.9386 C.3       4 UNK         0.0263 
     53 CB        -77.0411   20.3914  -76.0201 C.3       4 UNK        -0.1981 
     54 N         -78.5496   22.1606  -75.2366 N.am      4 UNK        -0.4224 
     55 C         -79.1076   23.3685  -75.0735 C.2       3 UNK         0.4895 
     56 O         -78.5755   24.4222  -75.4264 O.2       3 UNK        -0.5091 
     57 CA        -80.4649   23.4042  -74.3527 C.3       3 UNK         0.0250 
     58 CB        -80.2626   23.6575  -72.8499 C.3       3 UNK        -0.1996 
     59 N         -81.3465   24.4338  -74.9121 N.am      3 UNK        -0.4254 
     60 C         -81.9163   24.3614  -76.1251 C.2       2 UNK         0.5004 
     61 O         -81.7862   23.3921  -76.8751 O.2       2 UNK        -0.5226 
     62 CA        -82.8094   25.5322  -76.5858 C.3       2 UNK         0.0269 
     63 CB        -84.2808   25.0897  -76.6636 C.3       2 UNK        -0.1926 
     64 N         -82.7265   26.7300  -75.7449 N.am      2 UNK        -0.4687 
     65 C         -81.7067   27.5997  -75.7544 C.2       1 UNK         0.5165 
     66 O         -80.7237   27.4937  -76.4883 O.2       1 UNK        -0.5079 
     67 H67       -84.3933   32.1116  -76.4208 H         1 UNK         0.0900 
     68 H68       -85.2095   30.8367  -75.5142 H         1 UNK         0.0900 
     69 H69       -85.0369   30.7007  -77.2649 H         1 UNK         0.0900 
     70 H70       -83.7755   29.5331  -74.4177 H         1 UNK         0.2959 
     71 H71       -80.9569   29.4347  -74.9570 H         1 UNK         0.1079 
     72 H72       -81.8662   29.2660  -72.6615 H         1 UNK         0.0837 
     73 H73       -82.7180   27.8023  -73.0522 H         1 UNK         0.0837 
     74 H74       -80.0293   28.7447  -70.8568 H         1 UNK         0.0685 
     75 H75       -79.3182   29.4708  -72.2852 H         1 UNK         0.0685 
     76 H76       -78.9311   26.1343  -70.5488 H         1 UNK         0.1434 
     77 H77       -74.6631   26.4455  -70.3568 H         1 UNK         0.1329 
     78 H78       -76.9828   29.6193  -72.0835 H         1 UNK         0.1335 
     79 H79       -73.6684   28.7027  -70.6603 H         1 UNK         0.0680 
     80 H80       -73.8928   28.3818  -72.3603 H         1 UNK         0.0680 
     81 H81       -72.7657   31.9585  -72.8532 H         1 UNK         0.1032 
     82 H82       -72.2585   30.3247  -72.5511 H         1 UNK         0.1032 
     83 H83       -74.1543   29.6817  -74.3019 H         1 UNK         0.0461 
     84 H84       -75.2506   31.8788  -76.9180 H         1 UNK         0.3453 
     85 H85       -74.6600   30.2489  -76.6451 H         1 UNK         0.3453 
     86 H86       -72.4850   29.0620  -75.5271 H         1 UNK         0.2984 
     87 H87       -70.3251   30.1323  -77.2758 H         1 UNK         0.0554 
     88 H88       -67.9760   29.6744  -76.5181 H         1 UNK         0.0847 
     89 H89       -68.4538   30.0054  -74.8533 H         1 UNK         0.0847 
     90 H90       -68.5157   31.2795  -76.0605 H         1 UNK         0.0847 
     91 H91       -70.5659   27.9365  -77.1076 H         1 UNK         0.3141 
     92 H92       -69.7944   25.7000  -76.1457 H         1 UNK         0.0743 
     93 H93       -69.4806   25.2295  -73.7402 H         1 UNK         0.0784 
     94 H94       -71.1865   25.5061  -73.4234 H         1 UNK         0.0784 
     95 H95       -70.6790   24.1368  -74.4125 H         1 UNK         0.0784 
     96 H96       -72.6291   25.6342  -75.4414 H         1 UNK         0.3213 
     97 H97       -73.8490   26.7005  -78.5300 H         1 UNK         0.0855 
     98 H98       -73.4495   23.7204  -77.9360 H         1 UNK         0.0814 
     99 H99       -73.1104   24.5421  -79.4498 H         1 UNK         0.0814 
    100 H100      -74.7704   24.3878  -78.8962 H         1 UNK         0.0814 
    101 H101      -74.9567   25.0770  -76.3985 H         1 UNK         0.3105 
    102 H102      -75.5142   27.6637  -74.1283 H         1 UNK         0.0547 
    103 H103      -77.7242   26.8551  -76.0857 H         1 UNK         0.0837 
    104 H104      -77.9763   27.4041  -74.4314 H         1 UNK         0.0837 
    105 H105      -77.2872   28.4931  -75.6224 H         1 UNK         0.0837 
    106 H106      -76.7991   25.1103  -74.4951 H         1 UNK         0.3020 
    107 H107      -74.1106   23.1345  -73.5474 H         1 UNK         0.1245 
    108 H108      -74.5251   24.0438  -71.1812 H         1 UNK         0.0781 
    109 H109      -74.8241   22.3656  -71.4777 H         1 UNK         0.0781 
    110 H110      -75.8082   24.6114  -69.2096 H         1 UNK         0.0836 
    111 H111      -77.5446   24.6382  -69.0603 H         1 UNK         0.0836 
    112 H112      -76.8952   22.5442  -73.4724 H         1 UNK         0.3022 
    113 H113      -77.3952   22.2895  -76.9554 H         1 UNK         0.0747 
    114 H114      -77.8489   19.8865  -76.5501 H         1 UNK         0.0793 
    115 H115      -76.1177   20.1730  -76.5589 H         1 UNK         0.0793 
    116 H116      -76.9544   19.9420  -75.0299 H         1 UNK         0.0793 
    117 H117      -79.0459   21.3480  -74.8991 H         1 UNK         0.3047 
    118 H118      -80.9599   22.4385  -74.4767 H         1 UNK         0.0822 
    119 H119      -79.7362   22.8241  -72.3833 H         1 UNK         0.0807 
    120 H120      -81.2131   23.7715  -72.3287 H         1 UNK         0.0807 
    121 H121      -79.6672   24.5526  -72.6672 H         1 UNK         0.0807 
    122 H122      -81.4539   25.2833  -74.3773 H         1 UNK         0.2946 
    123 H123      -82.4811   25.7984  -77.5934 H         1 UNK         0.1144 
    124 H124      -84.3964   24.2249  -77.3187 H         1 UNK         0.0793 
    125 H125      -84.9134   25.8818  -77.0648 H         1 UNK         0.0793 
    126 H126      -84.6706   24.8100  -75.6841 H         1 UNK         0.0793 
    127 H127      -83.5028   26.9007  -75.1220 H         1 UNK         0.2896 
@<TRIPOS>BOND
     1    1    2 1    
     2    1   67 1    
     3    1   68 1    
     4    1   69 1    
     5    2    3 2    
     6    2    4 am   BACKBONE|DICT|INTERRES
     7    4    5 1    
     8    4   70 1    
     9    5    6 1    
    10    5   65 1    
    11    5   71 1    
    12    6    7 1    
    13    6   72 1    
    14    6   73 1    
    15    7    8 1    
    16    8    9 1    
    17    8   74 1    
    18    8   75 1    
    19    9   10 ar   
    20    9   14 ar   
    21   10   11 ar   
    22   10   76 1    
    23   11   12 ar   
    24   11   48 1    
    25   12   13 ar   
    26   12   77 1    
    27   13   14 ar   
    28   13   15 1    
    29   14   78 1    
    30   15   16 1    
    31   15   79 1    
    32   15   80 1    
    33   16   17 1    
    34   17   18 1    
    35   17   81 1    
    36   17   82 1    
    37   18   19 1    
    38   18   22 1    
    39   18   83 1    
    40   19   20 am   BACKBONE|DICT|INTERRES
    41   19   21 2    
    42   20   84 1    
    43   20   85 1    
    44   22   23 am   BACKBONE|DICT|INTERRES
    45   22   86 1    
    46   23   24 2    
    47   23   25 1    
    48   25   26 1    
    49   25   27 1    
    50   25   87 1    
    51   26   88 1    
    52   26   89 1    
    53   26   90 1    
    54   27   28 am   BACKBONE|DICT|INTERRES
    55   27   91 1    
    56   28   29 2    
    57   28   30 1    
    58   30   31 1    
    59   30   32 1    
    60   30   92 1    
    61   31   93 1    
    62   31   94 1    
    63   31   95 1    
    64   32   33 am   BACKBONE|DICT|INTERRES
    65   32   96 1    
    66   33   34 2    
    67   33   35 1    
    68   35   36 1    
    69   35   37 1    
    70   35   97 1    
    71   36   98 1    
    72   36   99 1    
    73   36  100 1    
    74   37   38 am   BACKBONE|DICT|INTERRES
    75   37  101 1    
    76   38   39 2    
    77   38   40 1    
    78   40   41 1    
    79   40   42 1    
    80   40  102 1    
    81   41  103 1    
    82   41  104 1    
    83   41  105 1    
    84   42   43 am   BACKBONE|DICT|INTERRES
    85   42  106 1    
    86   43   44 2    
    87   43   45 1    
    88   45   46 1    
    89   45   49 1    
    90   45  107 1    
    91   46   47 1    
    92   46  108 1    
    93   46  109 1    
    94   47   48 1    
    95   48  110 1    
    96   48  111 1    
    97   49   50 am   BACKBONE|DICT|INTERRES
    98   49  112 1    
    99   50   51 2    
   100   50   52 1    
   101   52   53 1    
   102   52   54 1    
   103   52  113 1    
   104   53  114 1    
   105   53  115 1    
   106   53  116 1    
   107   54   55 am   BACKBONE|DICT|INTERRES
   108   54  117 1    
   109   55   56 2    
   110   55   57 1    
   111   57   58 1    
   112   57   59 1    
   113   57  118 1    
   114   58  119 1    
   115   58  120 1    
   116   58  121 1    
   117   59   60 am   BACKBONE|DICT|INTERRES
   118   59  122 1    
   119   60   61 2    
   120   60   62 1    
   121   62   63 1    
   122   62   64 1    
   123   62  123 1    
   124   63  124 1    
   125   63  125 1    
   126   63  126 1    
   127   64   65 am   BACKBONE|DICT|INTERRES
   128   64  127 1    
   129   65   66 2    
@<TRIPOS>SUBSTRUCTURE
     1 UNK         1 GROUP             0       ****    0 ROOT    
