@<TRIPOS>MOLECULE
3R135
127   129    1
SMALL
USER_CHARGES


@<TRIPOS>ATOM
      1 CA        -83.7797   28.1198  -72.2766 C.3       0 UNK        -0.1998 
      2 C         -82.5317   27.9753  -73.1335 C.2       0 UNK         0.4909 
      3 O         -81.7561   27.0433  -72.9220 O.2       0 UNK        -0.5240 
      4 N         -82.3363   28.8963  -74.0888 N.am      1 UNK        -0.4739 
      5 CA        -81.2337   28.9800  -75.0605 C.3       1 UNK         0.0864 
      6 C6        -79.8250   29.1416  -74.4247 C.3       11 UNK        -0.0881 
      7 S7        -79.5915   30.8080  -73.7128 S.3       11 UNK        -0.2682 
      8 C8        -80.0151   30.5835  -71.9549 C.3       11 UNK         0.0289 
      9 C9        -78.9494   29.8028  -71.2024 C.ar      11 UNK        -0.0687 
     10 C10       -79.1313   28.4452  -70.9313 C.ar      11 UNK        -0.0823 
     11 C11       -78.1457   27.7180  -70.2604 C.ar      11 UNK        -0.0830 
     12 C12       -76.9910   28.3686  -69.8182 C.ar      11 UNK        -0.1021 
     13 C13       -76.7843   29.7234  -70.1034 C.ar      11 UNK        -0.0753 
     14 C14       -77.7751   30.4363  -70.7861 C.ar      11 UNK        -0.0933 
     15 C15       -75.4878   30.4268  -69.7107 C.3       11 UNK         0.0166 
     16 S16       -73.9881   29.4175  -69.9725 S.3       11 UNK        -0.2615 
     17 C17       -74.0718   29.0105  -71.7553 C.3       11 UNK        -0.0865 
     18 CA        -73.0448   29.7869  -72.6183 C.3       10 UNK         0.0862 
     19 C         -71.5764   29.4322  -72.2479 C.2       10 UNK         0.5551 
     20 N         -70.8232   30.3741  -71.6962 N.am      10 UNK        -0.7319 
     21 O         -71.1326   28.3006  -72.4285 O.2       10 UNK        -0.5018 
     22 N         -73.2993   29.5476  -74.0441 N.am      10 UNK        -0.4509 
     23 C         -72.7302   30.2210  -75.0517 C.2       10 UNK         0.4899 
     24 O         -72.0499   31.2380  -74.9049 O.2       10 UNK        -0.4839 
     25 CA        -72.9509   29.6241  -76.4542 C.3       9 UNK         0.0222 
     26 CB        -72.2140   30.3896  -77.5733 C.3       9 UNK        -0.1966 
     27 N         -72.6218   28.1940  -76.4796 N.am      9 UNK        -0.4218 
     28 C         -71.4361   27.6164  -76.2261 C.2       9 UNK         0.5020 
     29 O         -70.3879   28.2363  -76.0423 O.2       9 UNK        -0.5274 
     30 CA        -71.4105   26.0785  -76.1426 C.3       8 UNK         0.0270 
     31 CB        -71.4094   25.6306  -74.6721 C.3       8 UNK        -0.1976 
     32 N         -72.5325   25.4395  -76.8352 N.am      8 UNK        -0.4313 
     33 C         -72.6409   25.3362  -78.1670 C.2       8 UNK         0.5041 
     34 O         -71.7687   25.7010  -78.9565 O.2       8 UNK        -0.5577 
     35 CA        -73.9584   24.7582  -78.7121 C.3       7 UNK         0.0284 
     36 CB        -73.9539   23.2235  -78.6374 C.3       7 UNK        -0.1958 
     37 N         -75.1415   25.2883  -78.0263 N.am      7 UNK        -0.4454 
     38 C         -75.5147   26.5768  -78.0426 C.2       7 UNK         0.5089 
     39 O         -74.9123   27.4607  -78.6503 O.2       7 UNK        -0.5125 
     40 CA        -76.7558   26.9527  -77.2211 C.3       6 UNK         0.0408 
     41 CB        -78.0323   26.6571  -78.0193 C.3       6 UNK        -0.1791 
     42 N         -76.7942   26.2692  -75.9264 N.am      6 UNK        -0.4762 
     43 C         -75.9660   26.5467  -74.9080 C.2       6 UNK         0.5007 
     44 O         -75.1295   27.4512  -74.9288 O.2       6 UNK        -0.5032 
     45 CA        -76.0509   25.6338  -73.6714 C.3       5 UNK         0.0783 
     46 C46       -77.1656   26.1092  -72.7148 C.3       11 UNK        -0.0857 
     47 S47       -77.0538   25.2952  -71.0827 S.3       11 UNK        -0.2512 
     48 C48       -78.2904   26.2120  -70.0975 C.3       11 UNK         0.0225 
     49 N         -76.1985   24.2252  -74.0449 N.am      5 UNK        -0.4615 
     50 C         -75.2639   23.5136  -74.6887 C.2       4 UNK         0.5053 
     51 O         -74.1714   23.9669  -75.0263 O.2       4 UNK        -0.5105 
     52 CA        -75.6171   22.0639  -75.0563 C.3       4 UNK         0.0263 
     53 CB        -75.2442   21.1148  -73.9068 C.3       4 UNK        -0.1981 
     54 N         -77.0251   21.8719  -75.4121 N.am      4 UNK        -0.4224 
     55 C         -77.6681   22.4941  -76.4107 C.2       3 UNK         0.4895 
     56 O         -77.1350   23.3196  -77.1562 O.2       3 UNK        -0.5091 
     57 CA        -79.1533   22.1346  -76.6204 C.3       3 UNK         0.0250 
     58 CB        -79.7599   21.2659  -75.4931 C.3       3 UNK        -0.1996 
     59 N         -80.0002   23.3109  -76.8515 N.am      3 UNK        -0.4254 
     60 C         -80.1430   24.3781  -76.0518 C.2       2 UNK         0.5004 
     61 O         -79.4921   24.5681  -75.0205 O.2       2 UNK        -0.5226 
     62 CA        -81.2162   25.3871  -76.4848 C.3       2 UNK         0.0269 
     63 CB        -82.6278   24.7855  -76.3522 C.3       2 UNK        -0.1926 
     64 N         -81.1473   26.5930  -75.6622 N.am      2 UNK        -0.4687 
     65 C         -81.2846   27.8460  -76.1049 C.2       1 UNK         0.5165 
     66 O         -81.4685   28.1297  -77.2897 O.2       1 UNK        -0.5079 
     67 H67       -83.5024   28.2331  -71.2289 H         1 UNK         0.0900 
     68 H68       -84.3767   28.9847  -72.5651 H         1 UNK         0.0900 
     69 H69       -84.4026   27.2306  -72.3701 H         1 UNK         0.0900 
     70 H70       -83.0360   29.6170  -74.2016 H         1 UNK         0.2959 
     71 H71       -81.4297   29.8905  -75.6303 H         1 UNK         0.1079 
     72 H72       -79.6244   28.3713  -73.6809 H         1 UNK         0.0837 
     73 H73       -79.0493   29.0201  -75.1838 H         1 UNK         0.0837 
     74 H74       -80.9874   30.1000  -71.8649 H         1 UNK         0.0685 
     75 H75       -80.1276   31.5675  -71.4973 H         1 UNK         0.0685 
     76 H76       -80.0256   27.9452  -71.2741 H         1 UNK         0.1434 
     77 H77       -76.2269   27.8006  -69.3055 H         1 UNK         0.1329 
     78 H78       -77.6281   31.4837  -71.0124 H         1 UNK         0.1335 
     79 H79       -75.3726   31.3570  -70.2695 H         1 UNK         0.0680 
     80 H80       -75.5454   30.7025  -68.6571 H         1 UNK         0.0680 
     81 H81       -75.0794   29.2070  -72.1241 H         1 UNK         0.1032 
     82 H82       -73.9265   27.9342  -71.8664 H         1 UNK         0.1032 
     83 H83       -73.2042   30.8527  -72.4414 H         1 UNK         0.0461 
     84 H84       -71.1851   31.3018  -71.5399 H         1 UNK         0.3453 
     85 H85       -69.8737   30.1554  -71.4390 H         1 UNK         0.3453 
     86 H86       -73.8542   28.7281  -74.2754 H         1 UNK         0.2984 
     87 H87       -74.0208   29.6937  -76.6567 H         1 UNK         0.0554 
     88 H88       -72.5465   31.4273  -77.6180 H         1 UNK         0.0847 
     89 H89       -72.4078   29.9443  -78.5492 H         1 UNK         0.0847 
     90 H90       -71.1349   30.4023  -77.4181 H         1 UNK         0.0847 
     91 H91       -73.4162   27.5792  -76.5973 H         1 UNK         0.3141 
     92 H92       -70.4813   25.7376  -76.6042 H         1 UNK         0.0743 
     93 H93       -70.5580   26.0522  -74.1359 H         1 UNK         0.0784 
     94 H94       -72.3123   25.9549  -74.1523 H         1 UNK         0.0784 
     95 H95       -71.3435   24.5459  -74.5855 H         1 UNK         0.0784 
     96 H96       -73.2601   25.0348  -76.2473 H         1 UNK         0.3213 
     97 H97       -74.0356   25.0452  -79.7630 H         1 UNK         0.0855 
     98 H98       -73.8296   22.8704  -77.6144 H         1 UNK         0.0814 
     99 H99       -73.1332   22.8094  -79.2245 H         1 UNK         0.0814 
    100 H100      -74.8797   22.8016  -79.0294 H         1 UNK         0.0814 
    101 H101      -75.7387   24.6188  -77.5469 H         1 UNK         0.3105 
    102 H102      -76.7189   28.0284  -77.0351 H         1 UNK         0.0547 
    103 H103      -78.1644   25.5905  -78.2017 H         1 UNK         0.0837 
    104 H104      -78.0087   27.1528  -78.9908 H         1 UNK         0.0837 
    105 H105      -78.9107   27.0253  -77.4962 H         1 UNK         0.0837 
    106 H106      -77.4348   25.4904  -75.8301 H         1 UNK         0.3020 
    107 H107      -75.0947   25.7334  -73.1517 H         1 UNK         0.1245 
    108 H108      -78.1565   25.9328  -73.1371 H         1 UNK         0.0781 
    109 H109      -77.0792   27.1874  -72.5725 H         1 UNK         0.0781 
    110 H110      -78.1795   25.9468  -69.0453 H         1 UNK         0.0836 
    111 H111      -79.2879   25.8841  -70.3950 H         1 UNK         0.0836 
    112 H112      -77.0846   23.7924  -73.8268 H         1 UNK         0.3022 
    113 H113      -75.0215   21.7895  -75.9280 H         1 UNK         0.0747 
    114 H114      -75.3993   20.0722  -74.1852 H         1 UNK         0.0793 
    115 H115      -74.1920   21.2228  -73.6387 H         1 UNK         0.0793 
    116 H116      -75.8310   21.3152  -73.0093 H         1 UNK         0.0793 
    117 H117      -77.5467   21.2144  -74.8508 H         1 UNK         0.3047 
    118 H118      -79.1870   21.5501  -77.5409 H         1 UNK         0.0822 
    119 H119      -80.8064   21.0385  -75.6978 H         1 UNK         0.0807 
    120 H120      -79.7193   21.7659  -74.5243 H         1 UNK         0.0807 
    121 H121      -79.2461   20.3081  -75.4019 H         1 UNK         0.0807 
    122 H122      -80.5515   23.2772  -77.6976 H         1 UNK         0.2946 
    123 H123      -81.0285   25.6369  -77.5316 H         1 UNK         0.1144 
    124 H124      -83.3913   25.4972  -76.6670 H         1 UNK         0.0793 
    125 H125      -82.8450   24.4986  -75.3223 H         1 UNK         0.0793 
    126 H126      -82.7452   23.8958  -76.9718 H         1 UNK         0.0793 
    127 H127      -81.0093   26.4448  -74.6655 H         1 UNK         0.2896 
@<TRIPOS>BOND
     1    1    2 1    
     2    1   67 1    
     3    1   68 1    
     4    1   69 1    
     5    2    3 2    
     6    2    4 am   BACKBONE|DICT|INTERRES
     7    4    5 1    
     8    4   70 1    
     9    5    6 1    
    10    5   65 1    
    11    5   71 1    
    12    6    7 1    
    13    6   72 1    
    14    6   73 1    
    15    7    8 1    
    16    8    9 1    
    17    8   74 1    
    18    8   75 1    
    19    9   10 ar   
    20    9   14 ar   
    21   10   11 ar   
    22   10   76 1    
    23   11   12 ar   
    24   11   48 1    
    25   12   13 ar   
    26   12   77 1    
    27   13   14 ar   
    28   13   15 1    
    29   14   78 1    
    30   15   16 1    
    31   15   79 1    
    32   15   80 1    
    33   16   17 1    
    34   17   18 1    
    35   17   81 1    
    36   17   82 1    
    37   18   19 1    
    38   18   22 1    
    39   18   83 1    
    40   19   20 am   BACKBONE|DICT|INTERRES
    41   19   21 2    
    42   20   84 1    
    43   20   85 1    
    44   22   23 am   BACKBONE|DICT|INTERRES
    45   22   86 1    
    46   23   24 2    
    47   23   25 1    
    48   25   26 1    
    49   25   27 1    
    50   25   87 1    
    51   26   88 1    
    52   26   89 1    
    53   26   90 1    
    54   27   28 am   BACKBONE|DICT|INTERRES
    55   27   91 1    
    56   28   29 2    
    57   28   30 1    
    58   30   31 1    
    59   30   32 1    
    60   30   92 1    
    61   31   93 1    
    62   31   94 1    
    63   31   95 1    
    64   32   33 am   BACKBONE|DICT|INTERRES
    65   32   96 1    
    66   33   34 2    
    67   33   35 1    
    68   35   36 1    
    69   35   37 1    
    70   35   97 1    
    71   36   98 1    
    72   36   99 1    
    73   36  100 1    
    74   37   38 am   BACKBONE|DICT|INTERRES
    75   37  101 1    
    76   38   39 2    
    77   38   40 1    
    78   40   41 1    
    79   40   42 1    
    80   40  102 1    
    81   41  103 1    
    82   41  104 1    
    83   41  105 1    
    84   42   43 am   BACKBONE|DICT|INTERRES
    85   42  106 1    
    86   43   44 2    
    87   43   45 1    
    88   45   46 1    
    89   45   49 1    
    90   45  107 1    
    91   46   47 1    
    92   46  108 1    
    93   46  109 1    
    94   47   48 1    
    95   48  110 1    
    96   48  111 1    
    97   49   50 am   BACKBONE|DICT|INTERRES
    98   49  112 1    
    99   50   51 2    
   100   50   52 1    
   101   52   53 1    
   102   52   54 1    
   103   52  113 1    
   104   53  114 1    
   105   53  115 1    
   106   53  116 1    
   107   54   55 am   BACKBONE|DICT|INTERRES
   108   54  117 1    
   109   55   56 2    
   110   55   57 1    
   111   57   58 1    
   112   57   59 1    
   113   57  118 1    
   114   58  119 1    
   115   58  120 1    
   116   58  121 1    
   117   59   60 am   BACKBONE|DICT|INTERRES
   118   59  122 1    
   119   60   61 2    
   120   60   62 1    
   121   62   63 1    
   122   62   64 1    
   123   62  123 1    
   124   63  124 1    
   125   63  125 1    
   126   63  126 1    
   127   64   65 am   BACKBONE|DICT|INTERRES
   128   64  127 1    
   129   65   66 2    
@<TRIPOS>SUBSTRUCTURE
     1 UNK         1 GROUP             0       ****    0 ROOT    
