@<TRIPOS>MOLECULE
3R135
127   129    1
SMALL
USER_CHARGES


@<TRIPOS>ATOM
      1 CA        -83.8083   24.0544  -72.6195 C.3       0 UNK        -0.1998 
      2 C         -83.0781   25.2945  -73.1088 C.2       0 UNK         0.4909 
      3 O         -82.3588   25.2220  -74.1058 O.2       0 UNK        -0.5240 
      4 N         -83.2828   26.4368  -72.4354 N.am      1 UNK        -0.4739 
      5 CA        -82.6181   27.7461  -72.6076 C.3       1 UNK         0.0864 
      6 C6        -81.1020   27.7068  -72.2723 C.3       11 UNK        -0.0881 
      7 S7        -80.7241   27.0945  -70.5936 S.3       11 UNK        -0.2682 
      8 C8        -79.2563   28.0836  -70.1543 C.3       11 UNK         0.0289 
      9 C9        -78.0247   27.7263  -70.9812 C.ar      11 UNK        -0.0687 
     10 C10       -77.0891   26.7987  -70.5057 C.ar      11 UNK        -0.0823 
     11 C11       -75.9216   26.5275  -71.2307 C.ar      11 UNK        -0.0830 
     12 C12       -75.7071   27.1792  -72.4492 C.ar      11 UNK        -0.1021 
     13 C13       -76.6390   28.0949  -72.9429 C.ar      11 UNK        -0.0753 
     14 C14       -77.7918   28.3658  -72.2027 C.ar      11 UNK        -0.0933 
     15 C15       -76.3980   28.7967  -74.2734 C.3       11 UNK         0.0166 
     16 S16       -76.2522   30.6044  -74.0962 S.3       11 UNK        -0.2615 
     17 C17       -74.7501   30.7832  -73.0724 C.3       11 UNK        -0.0865 
     18 CA        -73.5470   31.3453  -73.8733 C.3       10 UNK         0.0862 
     19 C         -72.3818   31.7518  -72.9212 C.2       10 UNK         0.5551 
     20 N         -71.1860   31.1847  -73.0308 N.am      10 UNK        -0.7319 
     21 O         -72.5681   32.6121  -72.0641 O.2       10 UNK        -0.5018 
     22 N         -73.1569   30.4399  -74.9653 N.am      10 UNK        -0.4509 
     23 C         -72.4650   30.8010  -76.0526 C.2       10 UNK         0.4899 
     24 O         -72.1593   31.9662  -76.3119 O.2       10 UNK        -0.4839 
     25 CA        -72.0362   29.6605  -77.0011 C.3       9 UNK         0.0222 
     26 CB        -70.8449   30.0548  -77.8993 C.3       9 UNK        -0.1966 
     27 N         -71.7578   28.3862  -76.3207 N.am      9 UNK        -0.4218 
     28 C         -70.8780   28.1726  -75.3251 C.2       9 UNK         0.5020 
     29 O         -70.2085   29.0638  -74.8014 O.2       9 UNK        -0.5274 
     30 CA        -70.7330   26.7345  -74.7898 C.3       8 UNK         0.0270 
     31 CB        -71.5082   26.5790  -73.4708 C.3       8 UNK        -0.1976 
     32 N         -71.1843   25.7095  -75.7322 N.am      8 UNK        -0.4313 
     33 C         -70.5876   25.4139  -76.8950 C.2       8 UNK         0.5041 
     34 O         -69.5151   25.8988  -77.2569 O.2       8 UNK        -0.5577 
     35 CA        -71.3216   24.4314  -77.8255 C.3       7 UNK         0.0284 
     36 CB        -70.6741   23.0390  -77.7555 C.3       7 UNK        -0.1958 
     37 N         -72.7597   24.3019  -77.5610 N.am      7 UNK        -0.4454 
     38 C         -73.6793   25.2704  -77.6601 C.2       7 UNK         0.5089 
     39 O         -73.4094   26.4442  -77.9164 O.2       7 UNK        -0.5125 
     40 CA        -75.1410   24.8680  -77.3959 C.3       6 UNK         0.0408 
     41 CB        -75.6391   23.8204  -78.4105 C.3       6 UNK        -0.1791 
     42 N         -75.4113   24.4423  -76.0171 N.am      6 UNK        -0.4762 
     43 C         -74.9106   23.3988  -75.3329 C.2       6 UNK         0.5007 
     44 O         -74.0807   22.6097  -75.7863 O.2       6 UNK        -0.5032 
     45 CA        -75.4253   23.2010  -73.8920 C.3       5 UNK         0.0783 
     46 C46       -74.4481   23.8461  -72.8758 C.3       11 UNK        -0.0857 
     47 S47       -75.0814   23.8521  -71.1595 S.3       11 UNK        -0.2512 
     48 C48       -74.8584   25.5926  -70.6619 C.3       11 UNK         0.0225 
     49 N         -76.7954   23.6861  -73.7261 N.am      5 UNK        -0.4615 
     50 C         -77.8869   23.1450  -74.2792 C.2       4 UNK         0.5053 
     51 O         -77.8743   22.1542  -75.0103 O.2       4 UNK        -0.5105 
     52 CA        -79.2245   23.8285  -73.9544 C.3       4 UNK         0.0263 
     53 CB        -79.2183   24.5452  -72.5906 C.3       4 UNK        -0.1981 
     54 N         -79.6831   24.7359  -75.0137 N.am      4 UNK        -0.4224 
     55 C         -78.9901   25.7011  -75.6395 C.2       3 UNK         0.4895 
     56 O         -77.8176   25.9854  -75.3958 O.2       3 UNK        -0.5091 
     57 CA        -79.7213   26.4788  -76.7410 C.3       3 UNK         0.0250 
     58 CB        -79.6856   25.6894  -78.0646 C.3       3 UNK        -0.1996 
     59 N         -81.0978   26.8209  -76.3661 N.am      3 UNK        -0.4254 
     60 C         -81.8293   27.7823  -76.9546 C.2       2 UNK         0.5004 
     61 O         -81.4308   28.4618  -77.9013 O.2       2 UNK        -0.5226 
     62 CA        -83.2418   28.0484  -76.3964 C.3       2 UNK         0.0269 
     63 CB        -84.2919   27.2487  -77.1839 C.3       2 UNK        -0.1926 
     64 N         -83.3393   27.7028  -74.9795 N.am      2 UNK        -0.4687 
     65 C         -82.8163   28.4282  -73.9847 C.2       1 UNK         0.5165 
     66 O         -82.4542   29.5967  -74.1311 O.2       1 UNK        -0.5079 
     67 H67       -84.4562   23.6666  -73.4049 H         1 UNK         0.0900 
     68 H68       -83.0885   23.2796  -72.3573 H         1 UNK         0.0900 
     69 H69       -84.4208   24.2603  -71.7421 H         1 UNK         0.0900 
     70 H70       -83.9241   26.4097  -71.6547 H         1 UNK         0.2959 
     71 H71       -83.0958   28.4125  -71.8874 H         1 UNK         0.1079 
     72 H72       -80.6915   28.7136  -72.3558 H         1 UNK         0.0837 
     73 H73       -80.5599   27.0974  -72.9971 H         1 UNK         0.0837 
     74 H74       -79.4868   29.1445  -70.2630 H         1 UNK         0.0685 
     75 H75       -79.0432   27.9322  -69.0951 H         1 UNK         0.0685 
     76 H76       -77.2566   26.3092  -69.5560 H         1 UNK         0.1434 
     77 H77       -74.8035   26.9946  -73.0087 H         1 UNK         0.1329 
     78 H78       -78.4945   29.0962  -72.5763 H         1 UNK         0.1335 
     79 H79       -77.2341   28.5820  -74.9399 H         1 UNK         0.0680 
     80 H80       -75.5069   28.4083  -74.7685 H         1 UNK         0.0680 
     81 H81       -74.4884   29.8329  -72.6052 H         1 UNK         0.1032 
     82 H82       -75.0086   31.4539  -72.2506 H         1 UNK         0.1032 
     83 H83       -73.8782   32.2788  -74.3327 H         1 UNK         0.0461 
     84 H84       -70.9927   30.4821  -73.7380 H         1 UNK         0.3453 
     85 H85       -70.4512   31.4716  -72.4045 H         1 UNK         0.3453 
     86 H86       -73.3586   29.4623  -74.8291 H         1 UNK         0.2984 
     87 H87       -72.8915   29.4729  -77.6518 H         1 UNK         0.0554 
     88 H88       -71.0856   30.9221  -78.5153 H         1 UNK         0.0847 
     89 H89       -70.5740   29.2445  -78.5762 H         1 UNK         0.0847 
     90 H90       -69.9629   30.3080  -77.3100 H         1 UNK         0.0847 
     91 H91       -72.2640   27.5887  -76.6948 H         1 UNK         0.3141 
     92 H92       -69.6729   26.5658  -74.5893 H         1 UNK         0.0743 
     93 H93       -72.5757   26.7429  -73.6119 H         1 UNK         0.0784 
     94 H94       -71.3717   25.5862  -73.0414 H         1 UNK         0.0784 
     95 H95       -71.1641   27.3008  -72.7284 H         1 UNK         0.0784 
     96 H96       -72.0504   25.2377  -75.5197 H         1 UNK         0.3213 
     97 H97       -71.2097   24.8122  -78.8429 H         1 UNK         0.0855 
     98 H98       -70.7856   22.5921  -76.7667 H         1 UNK         0.0814 
     99 H99       -69.6060   23.0922  -77.9716 H         1 UNK         0.0814 
    100 H100      -71.1160   22.3584  -78.4836 H         1 UNK         0.0814 
    101 H101      -73.0868   23.4001  -77.2239 H         1 UNK         0.3105 
    102 H102      -75.7419   25.7670  -77.5439 H         1 UNK         0.0547 
    103 H103      -76.7044   23.6279  -78.2838 H         1 UNK         0.0837 
    104 H104      -75.1176   22.8680  -78.3136 H         1 UNK         0.0837 
    105 H105      -75.4924   24.1684  -79.4338 H         1 UNK         0.0837 
    106 H106      -76.1227   24.9997  -75.5484 H         1 UNK         0.3020 
    107 H107      -75.4419   22.1244  -73.7068 H         1 UNK         0.1245 
    108 H108      -74.2043   24.8645  -73.1729 H         1 UNK         0.0781 
    109 H109      -73.4995   23.3059  -72.8787 H         1 UNK         0.0781 
    110 H110      -73.8618   25.9302  -70.9510 H         1 UNK         0.0836 
    111 H111      -74.8799   25.6418  -69.5721 H         1 UNK         0.0836 
    112 H112      -76.9081   24.5075  -73.1485 H         1 UNK         0.3022 
    113 H113      -79.9643   23.0288  -73.8940 H         1 UNK         0.0747 
    114 H114      -80.2348   24.7752  -72.2781 H         1 UNK         0.0793 
    115 H115      -78.7844   23.9221  -71.8072 H         1 UNK         0.0793 
    116 H116      -78.6590   25.4797  -72.6232 H         1 UNK         0.0793 
    117 H117      -80.6533   24.6048  -75.2706 H         1 UNK         0.3047 
    118 H118      -79.1697   27.4112  -76.8824 H         1 UNK         0.0822 
    119 H119      -80.0698   26.2807  -78.8956 H         1 UNK         0.0807 
    120 H120      -80.2760   24.7745  -78.0042 H         1 UNK         0.0807 
    121 H121      -78.6643   25.4041  -78.3214 H         1 UNK         0.0807 
    122 H122      -81.4914   26.3332  -75.5667 H         1 UNK         0.2946 
    123 H123      -83.4531   29.1135  -76.5182 H         1 UNK         0.1144 
    124 H124      -84.1313   26.1733  -77.0954 H         1 UNK         0.0793 
    125 H125      -84.2561   27.4981  -78.2453 H         1 UNK         0.0793 
    126 H126      -85.3009   27.4678  -76.8341 H         1 UNK         0.0793 
    127 H127      -83.5524   26.7363  -74.7644 H         1 UNK         0.2896 
@<TRIPOS>BOND
     1    1    2 1    
     2    1   67 1    
     3    1   68 1    
     4    1   69 1    
     5    2    3 2    
     6    2    4 am   BACKBONE|DICT|INTERRES
     7    4    5 1    
     8    4   70 1    
     9    5    6 1    
    10    5   65 1    
    11    5   71 1    
    12    6    7 1    
    13    6   72 1    
    14    6   73 1    
    15    7    8 1    
    16    8    9 1    
    17    8   74 1    
    18    8   75 1    
    19    9   10 ar   
    20    9   14 ar   
    21   10   11 ar   
    22   10   76 1    
    23   11   12 ar   
    24   11   48 1    
    25   12   13 ar   
    26   12   77 1    
    27   13   14 ar   
    28   13   15 1    
    29   14   78 1    
    30   15   16 1    
    31   15   79 1    
    32   15   80 1    
    33   16   17 1    
    34   17   18 1    
    35   17   81 1    
    36   17   82 1    
    37   18   19 1    
    38   18   22 1    
    39   18   83 1    
    40   19   20 am   BACKBONE|DICT|INTERRES
    41   19   21 2    
    42   20   84 1    
    43   20   85 1    
    44   22   23 am   BACKBONE|DICT|INTERRES
    45   22   86 1    
    46   23   24 2    
    47   23   25 1    
    48   25   26 1    
    49   25   27 1    
    50   25   87 1    
    51   26   88 1    
    52   26   89 1    
    53   26   90 1    
    54   27   28 am   BACKBONE|DICT|INTERRES
    55   27   91 1    
    56   28   29 2    
    57   28   30 1    
    58   30   31 1    
    59   30   32 1    
    60   30   92 1    
    61   31   93 1    
    62   31   94 1    
    63   31   95 1    
    64   32   33 am   BACKBONE|DICT|INTERRES
    65   32   96 1    
    66   33   34 2    
    67   33   35 1    
    68   35   36 1    
    69   35   37 1    
    70   35   97 1    
    71   36   98 1    
    72   36   99 1    
    73   36  100 1    
    74   37   38 am   BACKBONE|DICT|INTERRES
    75   37  101 1    
    76   38   39 2    
    77   38   40 1    
    78   40   41 1    
    79   40   42 1    
    80   40  102 1    
    81   41  103 1    
    82   41  104 1    
    83   41  105 1    
    84   42   43 am   BACKBONE|DICT|INTERRES
    85   42  106 1    
    86   43   44 2    
    87   43   45 1    
    88   45   46 1    
    89   45   49 1    
    90   45  107 1    
    91   46   47 1    
    92   46  108 1    
    93   46  109 1    
    94   47   48 1    
    95   48  110 1    
    96   48  111 1    
    97   49   50 am   BACKBONE|DICT|INTERRES
    98   49  112 1    
    99   50   51 2    
   100   50   52 1    
   101   52   53 1    
   102   52   54 1    
   103   52  113 1    
   104   53  114 1    
   105   53  115 1    
   106   53  116 1    
   107   54   55 am   BACKBONE|DICT|INTERRES
   108   54  117 1    
   109   55   56 2    
   110   55   57 1    
   111   57   58 1    
   112   57   59 1    
   113   57  118 1    
   114   58  119 1    
   115   58  120 1    
   116   58  121 1    
   117   59   60 am   BACKBONE|DICT|INTERRES
   118   59  122 1    
   119   60   61 2    
   120   60   62 1    
   121   62   63 1    
   122   62   64 1    
   123   62  123 1    
   124   63  124 1    
   125   63  125 1    
   126   63  126 1    
   127   64   65 am   BACKBONE|DICT|INTERRES
   128   64  127 1    
   129   65   66 2    
@<TRIPOS>SUBSTRUCTURE
     1 UNK         1 GROUP             0       ****    0 ROOT    
