@<TRIPOS>MOLECULE
3R135
127   129    1
SMALL
USER_CHARGES


@<TRIPOS>ATOM
      1 CA        -83.5479   26.0912  -70.4468 C.3       0 UNK        -0.1998 
      2 C         -83.5792   26.6941  -71.8433 C.2       0 UNK         0.4909 
      3 O         -84.6581   26.9796  -72.3637 O.2       0 UNK        -0.5240 
      4 N         -82.4048   26.8825  -72.4520 N.am      1 UNK        -0.4739 
      5 CA        -82.2106   27.3825  -73.8123 C.3       1 UNK         0.0864 
      6 C6        -82.5788   28.8898  -74.0032 C.3       11 UNK        -0.0881 
      7 S7        -81.3795   30.2210  -73.6065 S.3       11 UNK        -0.2682 
      8 C8        -80.6677   29.8141  -71.9774 C.3       11 UNK         0.0289 
      9 C9        -79.2390   29.3009  -72.1080 C.ar      11 UNK        -0.0687 
     10 C10       -78.9130   27.9962  -71.7306 C.ar      11 UNK        -0.0823 
     11 C11       -77.6185   27.4969  -71.9044 C.ar      11 UNK        -0.0830 
     12 C12       -76.6340   28.3412  -72.4348 C.ar      11 UNK        -0.1021 
     13 C13       -76.9363   29.6581  -72.7911 C.ar      11 UNK        -0.0753 
     14 C14       -78.2393   30.1327  -72.6215 C.ar      11 UNK        -0.0933 
     15 C15       -75.8705   30.5574  -73.4006 C.3       11 UNK         0.0166 
     16 S16       -74.9572   31.4942  -72.1343 S.3       11 UNK        -0.2615 
     17 C17       -73.6959   30.2860  -71.5959 C.3       11 UNK        -0.0865 
     18 CA        -72.2709   30.6467  -72.0881 C.3       10 UNK         0.0862 
     19 C         -71.2236   29.6722  -71.4826 C.2       10 UNK         0.5551 
     20 N         -70.6716   29.9999  -70.3226 N.am      10 UNK        -0.7319 
     21 O         -70.9430   28.6077  -72.0306 O.2       10 UNK        -0.5018 
     22 N         -72.2029   30.6959  -73.5552 N.am      10 UNK        -0.4509 
     23 C         -71.1861   31.1904  -74.2674 C.2       10 UNK         0.4899 
     24 O         -70.1925   31.7222  -73.7685 O.2       10 UNK        -0.4839 
     25 CA        -71.3079   31.0574  -75.7981 C.3       9 UNK         0.0222 
     26 CB        -70.2250   31.8556  -76.5488 C.3       9 UNK        -0.1966 
     27 N         -71.2515   29.6580  -76.2299 N.am      9 UNK        -0.4218 
     28 C         -72.2533   28.7752  -76.1318 C.2       9 UNK         0.5020 
     29 O         -73.3528   29.0374  -75.6361 O.2       9 UNK        -0.5274 
     30 CA        -71.9607   27.3525  -76.6385 C.3       8 UNK         0.0270 
     31 CB        -71.3914   26.4925  -75.4991 C.3       8 UNK        -0.1976 
     32 N         -73.1651   26.7141  -77.1768 N.am      8 UNK        -0.4313 
     33 C         -73.7875   27.1030  -78.3005 C.2       8 UNK         0.5041 
     34 O         -73.3346   27.9638  -79.0586 O.2       8 UNK        -0.5577 
     35 CA        -75.1471   26.4496  -78.6265 C.3       7 UNK         0.0284 
     36 CB        -75.4808   26.4625  -80.1338 C.3       7 UNK        -0.1958 
     37 N         -75.3176   25.1093  -78.0573 N.am      7 UNK        -0.4454 
     38 C         -74.6180   24.0020  -78.3477 C.2       7 UNK         0.5089 
     39 O         -73.7327   23.9536  -79.2032 O.2       7 UNK        -0.5125 
     40 CA        -74.9649   22.7382  -77.5310 C.3       6 UNK         0.0408 
     41 CB        -73.8140   21.7104  -77.5118 C.3       6 UNK        -0.1791 
     42 N         -75.4207   23.0235  -76.1631 N.am      6 UNK        -0.4762 
     43 C         -74.7519   23.6913  -75.2057 C.2       6 UNK         0.5007 
     44 O         -73.6286   24.1623  -75.3818 O.2       6 UNK        -0.5032 
     45 CA        -75.4525   23.8987  -73.8434 C.3       5 UNK         0.0783 
     46 C46       -75.2227   25.3316  -73.2963 C.3       11 UNK        -0.0857 
     47 S47       -75.6264   25.4733  -71.5215 S.3       11 UNK        -0.2512 
     48 C48       -77.3664   26.0322  -71.5407 C.3       11 UNK         0.0225 
     49 N         -76.8833   23.6165  -73.9666 N.am      5 UNK        -0.4615 
     50 C         -77.5234   22.5401  -73.4967 C.2       4 UNK         0.5053 
     51 O         -76.9827   21.6555  -72.8338 O.2       4 UNK        -0.5105 
     52 CA        -79.0202   22.4163  -73.8449 C.3       4 UNK         0.0263 
     53 CB        -79.8923   22.7674  -72.6282 C.3       4 UNK        -0.1981 
     54 N         -79.4175   23.2486  -74.9879 N.am      4 UNK        -0.4224 
     55 C         -79.0613   22.9997  -76.2591 C.2       3 UNK         0.4895 
     56 O         -78.4026   22.0164  -76.5976 O.2       3 UNK        -0.5091 
     57 CA        -79.4417   24.0414  -77.3285 C.3       3 UNK         0.0250 
     58 CB        -80.7800   23.6710  -77.9862 C.3       3 UNK        -0.1996 
     59 N         -79.5137   25.4146  -76.8217 N.am      3 UNK        -0.4254 
     60 C         -78.4985   26.0850  -76.2590 C.2       2 UNK         0.5004 
     61 O         -77.3601   25.6291  -76.1498 O.2       2 UNK        -0.5226 
     62 CA        -78.8141   27.4675  -75.6651 C.3       2 UNK         0.0269 
     63 CB        -78.4228   28.5861  -76.6416 C.3       2 UNK        -0.1926 
     64 N         -80.2092   27.6523  -75.2421 N.am      2 UNK        -0.4687 
     65 C         -80.8204   26.9256  -74.2959 C.2       1 UNK         0.5165 
     66 O         -80.3193   25.9124  -73.7982 O.2       1 UNK        -0.5079 
     67 H67       -82.5304   25.8901  -70.1118 H         1 UNK         0.0900 
     68 H68       -84.0107   26.7730  -69.7339 H         1 UNK         0.0900 
     69 H69       -84.1018   25.1530  -70.4307 H         1 UNK         0.0900 
     70 H70       -81.5553   26.5339  -72.0286 H         1 UNK         0.2959 
     71 H71       -82.9045   26.8137  -74.4357 H         1 UNK         0.1079 
     72 H72       -83.4968   29.1169  -73.4602 H         1 UNK         0.0837 
     73 H73       -82.8480   29.0399  -75.0500 H         1 UNK         0.0837 
     74 H74       -81.3059   29.1094  -71.4452 H         1 UNK         0.0685 
     75 H75       -80.6545   30.7213  -71.3720 H         1 UNK         0.0685 
     76 H76       -79.6794   27.3502  -71.3273 H         1 UNK         0.1434 
     77 H77       -75.6303   27.9798  -72.5915 H         1 UNK         0.1329 
     78 H78       -78.4840   31.1454  -72.9117 H         1 UNK         0.1335 
     79 H79       -76.3370   31.2654  -74.0872 H         1 UNK         0.0680 
     80 H80       -75.1785   29.9697  -74.0034 H         1 UNK         0.0680 
     81 H81       -73.7227   30.2561  -70.5049 H         1 UNK         0.1032 
     82 H82       -73.9634   29.2827  -71.9253 H         1 UNK         0.1032 
     83 H83       -72.0376   31.6506  -71.7267 H         1 UNK         0.0461 
     84 H84       -70.0013   29.3733  -69.9049 H         1 UNK         0.3453 
     85 H85       -70.9013   30.8666  -69.8612 H         1 UNK         0.3453 
     86 H86       -72.9321   30.2063  -74.0625 H         1 UNK         0.2984 
     87 H87       -72.2775   31.4712  -76.0838 H         1 UNK         0.0554 
     88 H88       -70.2534   32.9097  -76.2689 H         1 UNK         0.0847 
     89 H89       -70.3715   31.8063  -77.6280 H         1 UNK         0.0847 
     90 H90       -69.2222   31.4874  -76.3286 H         1 UNK         0.0847 
     91 H91       -70.3691   29.3438  -76.6082 H         1 UNK         0.3141 
     92 H92       -71.2205   27.4068  -77.4397 H         1 UNK         0.0743 
     93 H93       -72.0921   26.4131  -74.6668 H         1 UNK         0.0784 
     94 H94       -71.1603   25.4830  -75.8399 H         1 UNK         0.0784 
     95 H95       -70.4690   26.9214  -75.1051 H         1 UNK         0.0784 
     96 H96       -73.5801   25.9827  -76.6119 H         1 UNK         0.3213 
     97 H97       -75.8905   27.0726  -78.1292 H         1 UNK         0.0855 
     98 H98       -74.7365   25.9218  -80.7188 H         1 UNK         0.0814 
     99 H99       -75.5148   27.4826  -80.5181 H         1 UNK         0.0814 
    100 H100      -76.4545   26.0130  -80.3285 H         1 UNK         0.0814 
    101 H101      -76.0140   25.0536  -77.3157 H         1 UNK         0.3105 
    102 H102      -75.8117   22.2757  -78.0398 H         1 UNK         0.0547 
    103 H103      -74.0862   20.8198  -76.9458 H         1 UNK         0.0837 
    104 H104      -72.9082   22.1263  -77.0693 H         1 UNK         0.0837 
    105 H105      -73.5617   21.3848  -78.5217 H         1 UNK         0.0837 
    106 H106      -76.3508   22.6876  -75.9437 H         1 UNK         0.3020 
    107 H107      -74.9848   23.1878  -73.1586 H         1 UNK         0.1245 
    108 H108      -75.7909   26.0586  -73.8786 H         1 UNK         0.0781 
    109 H109      -74.1760   25.6272  -73.3872 H         1 UNK         0.0781 
    110 H110      -77.7762   25.8475  -70.5467 H         1 UNK         0.0836 
    111 H111      -77.9373   25.4049  -72.2240 H         1 UNK         0.0836 
    112 H112      -77.3966   24.2783  -74.5369 H         1 UNK         0.3022 
    113 H113      -79.2076   21.3722  -74.1048 H         1 UNK         0.0747 
    114 H114      -80.9522   22.6425  -72.8499 H         1 UNK         0.0793 
    115 H115      -79.6599   22.1187  -71.7825 H         1 UNK         0.0793 
    116 H116      -79.7384   23.7949  -72.2996 H         1 UNK         0.0793 
    117 H117      -79.9129   24.1074  -74.7700 H         1 UNK         0.3047 
    118 H118      -78.6641   24.0168  -78.0951 H         1 UNK         0.0822 
    119 H119      -81.0176   24.3440  -78.8103 H         1 UNK         0.0807 
    120 H120      -81.6047   23.7066  -77.2732 H         1 UNK         0.0807 
    121 H121      -80.7468   22.6603  -78.3960 H         1 UNK         0.0807 
    122 H122      -80.4133   25.8708  -76.8627 H         1 UNK         0.2946 
    123 H123      -78.1934   27.5692  -74.7729 H         1 UNK         0.1144 
    124 H124      -78.5687   29.5693  -76.1931 H         1 UNK         0.0793 
    125 H125      -79.0064   28.5435  -77.5619 H         1 UNK         0.0793 
    126 H126      -77.3695   28.5150  -76.9145 H         1 UNK         0.0793 
    127 H127      -80.6738   28.4846  -75.5771 H         1 UNK         0.2896 
@<TRIPOS>BOND
     1    1    2 1    
     2    1   67 1    
     3    1   68 1    
     4    1   69 1    
     5    2    3 2    
     6    2    4 am   BACKBONE|DICT|INTERRES
     7    4    5 1    
     8    4   70 1    
     9    5    6 1    
    10    5   65 1    
    11    5   71 1    
    12    6    7 1    
    13    6   72 1    
    14    6   73 1    
    15    7    8 1    
    16    8    9 1    
    17    8   74 1    
    18    8   75 1    
    19    9   10 ar   
    20    9   14 ar   
    21   10   11 ar   
    22   10   76 1    
    23   11   12 ar   
    24   11   48 1    
    25   12   13 ar   
    26   12   77 1    
    27   13   14 ar   
    28   13   15 1    
    29   14   78 1    
    30   15   16 1    
    31   15   79 1    
    32   15   80 1    
    33   16   17 1    
    34   17   18 1    
    35   17   81 1    
    36   17   82 1    
    37   18   19 1    
    38   18   22 1    
    39   18   83 1    
    40   19   20 am   BACKBONE|DICT|INTERRES
    41   19   21 2    
    42   20   84 1    
    43   20   85 1    
    44   22   23 am   BACKBONE|DICT|INTERRES
    45   22   86 1    
    46   23   24 2    
    47   23   25 1    
    48   25   26 1    
    49   25   27 1    
    50   25   87 1    
    51   26   88 1    
    52   26   89 1    
    53   26   90 1    
    54   27   28 am   BACKBONE|DICT|INTERRES
    55   27   91 1    
    56   28   29 2    
    57   28   30 1    
    58   30   31 1    
    59   30   32 1    
    60   30   92 1    
    61   31   93 1    
    62   31   94 1    
    63   31   95 1    
    64   32   33 am   BACKBONE|DICT|INTERRES
    65   32   96 1    
    66   33   34 2    
    67   33   35 1    
    68   35   36 1    
    69   35   37 1    
    70   35   97 1    
    71   36   98 1    
    72   36   99 1    
    73   36  100 1    
    74   37   38 am   BACKBONE|DICT|INTERRES
    75   37  101 1    
    76   38   39 2    
    77   38   40 1    
    78   40   41 1    
    79   40   42 1    
    80   40  102 1    
    81   41  103 1    
    82   41  104 1    
    83   41  105 1    
    84   42   43 am   BACKBONE|DICT|INTERRES
    85   42  106 1    
    86   43   44 2    
    87   43   45 1    
    88   45   46 1    
    89   45   49 1    
    90   45  107 1    
    91   46   47 1    
    92   46  108 1    
    93   46  109 1    
    94   47   48 1    
    95   48  110 1    
    96   48  111 1    
    97   49   50 am   BACKBONE|DICT|INTERRES
    98   49  112 1    
    99   50   51 2    
   100   50   52 1    
   101   52   53 1    
   102   52   54 1    
   103   52  113 1    
   104   53  114 1    
   105   53  115 1    
   106   53  116 1    
   107   54   55 am   BACKBONE|DICT|INTERRES
   108   54  117 1    
   109   55   56 2    
   110   55   57 1    
   111   57   58 1    
   112   57   59 1    
   113   57  118 1    
   114   58  119 1    
   115   58  120 1    
   116   58  121 1    
   117   59   60 am   BACKBONE|DICT|INTERRES
   118   59  122 1    
   119   60   61 2    
   120   60   62 1    
   121   62   63 1    
   122   62   64 1    
   123   62  123 1    
   124   63  124 1    
   125   63  125 1    
   126   63  126 1    
   127   64   65 am   BACKBONE|DICT|INTERRES
   128   64  127 1    
   129   65   66 2    
@<TRIPOS>SUBSTRUCTURE
     1 UNK         1 GROUP             0       ****    0 ROOT    
