@<TRIPOS>MOLECULE
3R135
127   129    1
SMALL
USER_CHARGES


@<TRIPOS>ATOM
      1 CA        -81.2669   25.3033  -72.0684 C.3       0 UNK        -0.1998 
      2 C         -81.3188   25.7663  -73.5157 C.2       0 UNK         0.4909 
      3 O         -81.9571   25.1178  -74.3468 O.2       0 UNK        -0.5240 
      4 N         -80.6549   26.8882  -73.8268 N.am      1 UNK        -0.4739 
      5 CA        -80.5477   27.4477  -75.1775 C.3       1 UNK         0.0864 
      6 C6        -79.9099   28.8607  -75.1925 C.3       11 UNK        -0.0881 
      7 S7        -80.8028   30.0591  -74.1466 S.3       11 UNK        -0.2682 
      8 C8        -79.4404   31.1420  -73.5818 C.3       11 UNK         0.0289 
      9 C9        -78.3763   30.4381  -72.7392 C.ar      11 UNK        -0.0687 
     10 C10       -78.7190   29.4358  -71.8266 C.ar      11 UNK        -0.0823 
     11 C11       -77.7303   28.7797  -71.0925 C.ar      11 UNK        -0.0830 
     12 C12       -76.4012   29.1920  -71.2003 C.ar      11 UNK        -0.1021 
     13 C13       -76.0279   30.1615  -72.1387 C.ar      11 UNK        -0.0753 
     14 C14       -77.0285   30.7834  -72.8955 C.ar      11 UNK        -0.0933 
     15 C15       -74.5667   30.5133  -72.4363 C.3       11 UNK         0.0166 
     16 S16       -73.3086   29.8884  -71.2653 S.3       11 UNK        -0.2615 
     17 C17       -73.2785   28.0935  -71.6159 C.3       11 UNK        -0.0865 
     18 CA        -72.0220   27.6439  -72.4030 C.3       10 UNK         0.0862 
     19 C         -71.8280   26.1032  -72.2966 C.2       10 UNK         0.5551 
     20 N         -72.0108   25.3359  -73.3637 N.am      10 UNK        -0.7319 
     21 O         -71.5001   25.6001  -71.2251 O.2       10 UNK        -0.5018 
     22 N         -72.0467   28.1408  -73.7887 N.am      10 UNK        -0.4509 
     23 C         -70.9528   28.3696  -74.5267 C.2       10 UNK         0.4899 
     24 O         -69.8042   28.2496  -74.0983 O.2       10 UNK        -0.4839 
     25 CA        -71.1503   28.8009  -75.9921 C.3       9 UNK         0.0222 
     26 CB        -70.8424   27.6403  -76.9505 C.3       9 UNK        -0.1966 
     27 N         -72.4852   29.3331  -76.2863 N.am      9 UNK        -0.4218 
     28 C         -72.8769   30.5739  -75.9508 C.2       9 UNK         0.5020 
     29 O         -72.1643   31.3547  -75.3185 O.2       9 UNK        -0.5274 
     30 CA        -74.2718   31.0554  -76.3862 C.3       8 UNK         0.0270 
     31 CB        -74.1725   32.2800  -77.3162 C.3       8 UNK        -0.1976 
     32 N         -75.0595   30.0115  -77.0383 N.am      8 UNK        -0.4313 
     33 C         -76.3896   29.9133  -77.0175 C.2       8 UNK         0.5041 
     34 O         -77.1308   30.6986  -76.4272 O.2       8 UNK        -0.5577 
     35 CA        -77.0009   28.7455  -77.8066 C.3       7 UNK         0.0284 
     36 CB        -76.8581   28.9530  -79.3273 C.3       7 UNK        -0.1958 
     37 N         -76.5196   27.4211  -77.3958 N.am      7 UNK        -0.4454 
     38 C         -75.2984   26.8834  -77.5097 C.2       7 UNK         0.5089 
     39 O         -74.3071   27.4931  -77.9233 O.2       7 UNK        -0.5125 
     40 CA        -75.1862   25.4152  -77.0533 C.3       6 UNK         0.0408 
     41 CB        -73.7571   24.8475  -77.1550 C.3       6 UNK        -0.1791 
     42 N         -75.7254   25.1806  -75.7097 N.am      6 UNK        -0.4762 
     43 C         -75.3751   25.8068  -74.5749 C.2       6 UNK         0.5007 
     44 O         -74.5755   26.7442  -74.5343 O.2       6 UNK        -0.5032 
     45 CA        -75.9816   25.2819  -73.2530 C.3       5 UNK         0.0783 
     46 C46       -77.0660   26.2342  -72.6925 C.3       11 UNK        -0.0857 
     47 S47       -77.2449   26.0262  -70.8772 S.3       11 UNK        -0.2512 
     48 C48       -78.0767   27.5474  -70.2721 C.3       11 UNK         0.0225 
     49 N         -76.5046   23.9187  -73.3642 N.am      5 UNK        -0.4615 
     50 C         -75.7887   22.8006  -73.5066 C.2       4 UNK         0.5053 
     51 O         -74.5589   22.7798  -73.5488 O.2       4 UNK        -0.5105 
     52 CA        -76.5694   21.4774  -73.6332 C.3       4 UNK         0.0263 
     53 CB        -76.8979   20.9052  -72.2403 C.3       4 UNK        -0.1981 
     54 N         -77.7718   21.5251  -74.4862 N.am      4 UNK        -0.4224 
     55 C         -78.9121   22.2079  -74.3037 C.2       3 UNK         0.4895 
     56 O         -79.1104   22.9908  -73.3734 O.2       3 UNK        -0.5091 
     57 CA        -80.0178   21.9902  -75.3449 C.3       3 UNK         0.0250 
     58 CB        -81.3484   21.6139  -74.6709 C.3       3 UNK        -0.1996 
     59 N         -80.2032   23.2017  -76.1413 N.am      3 UNK        -0.4254 
     60 C         -79.4380   23.5372  -77.1903 C.2       2 UNK         0.5004 
     61 O         -78.4994   22.8504  -77.5949 O.2       2 UNK        -0.5226 
     62 CA        -79.7671   24.8540  -77.9199 C.3       2 UNK         0.0269 
     63 CB        -80.6817   24.5871  -79.1259 C.3       2 UNK        -0.1926 
     64 N         -80.3882   25.8622  -77.0558 N.am      2 UNK        -0.4687 
     65 C         -79.7396   26.4838  -76.0643 C.2       1 UNK         0.5165 
     66 O         -78.5451   26.3054  -75.8252 O.2       1 UNK        -0.5079 
     67 H67       -82.1925   25.5624  -71.5557 H         1 UNK         0.0900 
     68 H68       -80.4338   25.7538  -71.5310 H         1 UNK         0.0900 
     69 H69       -81.1432   24.2215  -72.0247 H         1 UNK         0.0900 
     70 H70       -80.1424   27.3833  -73.1134 H         1 UNK         0.2959 
     71 H71       -81.5588   27.5317  -75.5820 H         1 UNK         0.1079 
     72 H72       -78.8656   28.8121  -74.8770 H         1 UNK         0.0837 
     73 H73       -79.9009   29.2620  -76.2070 H         1 UNK         0.0837 
     74 H74       -78.9849   31.6008  -74.4610 H         1 UNK         0.0685 
     75 H75       -79.8642   31.9559  -72.9926 H         1 UNK         0.0685 
     76 H76       -79.7521   29.1375  -71.7184 H         1 UNK         0.1434 
     77 H77       -75.6621   28.6761  -70.6077 H         1 UNK         0.1329 
     78 H78       -76.7538   31.5287  -73.6300 H         1 UNK         0.1335 
     79 H79       -74.3211   30.1354  -73.4279 H         1 UNK         0.0680 
     80 H80       -74.4674   31.5987  -72.4840 H         1 UNK         0.0680 
     81 H81       -73.3267   27.5891  -70.6486 H         1 UNK         0.1032 
     82 H82       -74.1804   27.7958  -72.1511 H         1 UNK         0.1032 
     83 H83       -71.1562   28.0821  -71.9025 H         1 UNK         0.0461 
     84 H84       -71.8968   24.3377  -73.2860 H         1 UNK         0.3453 
     85 H85       -72.3343   25.7476  -74.2240 H         1 UNK         0.3453 
     86 H86       -72.9575   28.1746  -74.2289 H         1 UNK         0.2984 
     87 H87       -70.4192   29.5876  -76.1915 H         1 UNK         0.0554 
     88 H88       -70.8907   27.9609  -77.9913 H         1 UNK         0.0847 
     89 H89       -71.5406   26.8164  -76.8233 H         1 UNK         0.0847 
     90 H90       -69.8394   27.2464  -76.7801 H         1 UNK         0.0847 
     91 H91       -73.1134   28.7097  -76.7796 H         1 UNK         0.3141 
     92 H92       -74.7860   31.3610  -75.4730 H         1 UNK         0.0743 
     93 H93       -73.6033   33.0851  -76.8496 H         1 UNK         0.0784 
     94 H94       -73.6781   32.0305  -78.2557 H         1 UNK         0.0784 
     95 H95       -75.1586   32.6803  -77.5522 H         1 UNK         0.0784 
     96 H96       -74.5642   29.2830  -77.5461 H         1 UNK         0.3213 
     97 H97       -78.0682   28.7474  -77.5869 H         1 UNK         0.0855 
     98 H98       -77.2802   29.9126  -79.6290 H         1 UNK         0.0814 
     99 H99       -77.3876   28.1785  -79.8822 H         1 UNK         0.0814 
    100 H100      -75.8170   28.9425  -79.6509 H         1 UNK         0.0814 
    101 H101      -77.2107   26.8630  -76.8944 H         1 UNK         0.3105 
    102 H102      -75.8123   24.8431  -77.7398 H         1 UNK         0.0547 
    103 H103      -73.3189   25.0394  -78.1352 H         1 UNK         0.0837 
    104 H104      -73.0989   25.2808  -76.4048 H         1 UNK         0.0837 
    105 H105      -73.7547   23.7678  -77.0064 H         1 UNK         0.0837 
    106 H106      -76.4294   24.4599  -75.6364 H         1 UNK         0.3020 
    107 H107      -75.1453   25.2553  -72.5504 H         1 UNK         0.1245 
    108 H108      -78.0291   26.0526  -73.1702 H         1 UNK         0.0781 
    109 H109      -76.8073   27.2636  -72.9324 H         1 UNK         0.0781 
    110 H110      -77.7933   27.7159  -69.2323 H         1 UNK         0.0836 
    111 H111      -79.1540   27.3783  -70.2674 H         1 UNK         0.0836 
    112 H112      -77.5159   23.8123  -73.3055 H         1 UNK         0.3022 
    113 H113      -75.8957   20.7718  -74.1222 H         1 UNK         0.0747 
    114 H114      -77.3717   19.9264  -72.3151 H         1 UNK         0.0793 
    115 H115      -75.9910   20.7817  -71.6469 H         1 UNK         0.0793 
    116 H116      -77.5652   21.5587  -71.6772 H         1 UNK         0.0793 
    117 H117      -77.7080   20.9621  -75.3240 H         1 UNK         0.3047 
    118 H118      -79.7360   21.1662  -76.0045 H         1 UNK         0.0822 
    119 H119      -82.1280   21.4273  -75.4096 H         1 UNK         0.0807 
    120 H120      -81.7031   22.3999  -74.0030 H         1 UNK         0.0807 
    121 H121      -81.2404   20.7062  -74.0758 H         1 UNK         0.0807 
    122 H122      -80.9029   23.8569  -75.8110 H         1 UNK         0.2946 
    123 H123      -78.8233   25.2589  -78.2931 H         1 UNK         0.1144 
    124 H124      -80.8537   25.4961  -79.7028 H         1 UNK         0.0793 
    125 H125      -81.6516   24.1940  -78.8188 H         1 UNK         0.0793 
    126 H126      -80.2333   23.8571  -79.8015 H         1 UNK         0.0793 
    127 H127      -81.3765   26.0297  -77.1838 H         1 UNK         0.2896 
@<TRIPOS>BOND
     1    1    2 1    
     2    1   67 1    
     3    1   68 1    
     4    1   69 1    
     5    2    3 2    
     6    2    4 am   BACKBONE|DICT|INTERRES
     7    4    5 1    
     8    4   70 1    
     9    5    6 1    
    10    5   65 1    
    11    5   71 1    
    12    6    7 1    
    13    6   72 1    
    14    6   73 1    
    15    7    8 1    
    16    8    9 1    
    17    8   74 1    
    18    8   75 1    
    19    9   10 ar   
    20    9   14 ar   
    21   10   11 ar   
    22   10   76 1    
    23   11   12 ar   
    24   11   48 1    
    25   12   13 ar   
    26   12   77 1    
    27   13   14 ar   
    28   13   15 1    
    29   14   78 1    
    30   15   16 1    
    31   15   79 1    
    32   15   80 1    
    33   16   17 1    
    34   17   18 1    
    35   17   81 1    
    36   17   82 1    
    37   18   19 1    
    38   18   22 1    
    39   18   83 1    
    40   19   20 am   BACKBONE|DICT|INTERRES
    41   19   21 2    
    42   20   84 1    
    43   20   85 1    
    44   22   23 am   BACKBONE|DICT|INTERRES
    45   22   86 1    
    46   23   24 2    
    47   23   25 1    
    48   25   26 1    
    49   25   27 1    
    50   25   87 1    
    51   26   88 1    
    52   26   89 1    
    53   26   90 1    
    54   27   28 am   BACKBONE|DICT|INTERRES
    55   27   91 1    
    56   28   29 2    
    57   28   30 1    
    58   30   31 1    
    59   30   32 1    
    60   30   92 1    
    61   31   93 1    
    62   31   94 1    
    63   31   95 1    
    64   32   33 am   BACKBONE|DICT|INTERRES
    65   32   96 1    
    66   33   34 2    
    67   33   35 1    
    68   35   36 1    
    69   35   37 1    
    70   35   97 1    
    71   36   98 1    
    72   36   99 1    
    73   36  100 1    
    74   37   38 am   BACKBONE|DICT|INTERRES
    75   37  101 1    
    76   38   39 2    
    77   38   40 1    
    78   40   41 1    
    79   40   42 1    
    80   40  102 1    
    81   41  103 1    
    82   41  104 1    
    83   41  105 1    
    84   42   43 am   BACKBONE|DICT|INTERRES
    85   42  106 1    
    86   43   44 2    
    87   43   45 1    
    88   45   46 1    
    89   45   49 1    
    90   45  107 1    
    91   46   47 1    
    92   46  108 1    
    93   46  109 1    
    94   47   48 1    
    95   48  110 1    
    96   48  111 1    
    97   49   50 am   BACKBONE|DICT|INTERRES
    98   49  112 1    
    99   50   51 2    
   100   50   52 1    
   101   52   53 1    
   102   52   54 1    
   103   52  113 1    
   104   53  114 1    
   105   53  115 1    
   106   53  116 1    
   107   54   55 am   BACKBONE|DICT|INTERRES
   108   54  117 1    
   109   55   56 2    
   110   55   57 1    
   111   57   58 1    
   112   57   59 1    
   113   57  118 1    
   114   58  119 1    
   115   58  120 1    
   116   58  121 1    
   117   59   60 am   BACKBONE|DICT|INTERRES
   118   59  122 1    
   119   60   61 2    
   120   60   62 1    
   121   62   63 1    
   122   62   64 1    
   123   62  123 1    
   124   63  124 1    
   125   63  125 1    
   126   63  126 1    
   127   64   65 am   BACKBONE|DICT|INTERRES
   128   64  127 1    
   129   65   66 2    
@<TRIPOS>SUBSTRUCTURE
     1 UNK         1 GROUP             0       ****    0 ROOT    
