@<TRIPOS>MOLECULE
3R135
127   129    1
SMALL
USER_CHARGES


@<TRIPOS>ATOM
      1 CA        -84.9346   30.1289  -74.6003 C.3       0 UNK        -0.1998 
      2 C         -83.5729   29.8460  -75.2169 C.2       0 UNK         0.4909 
      3 O         -83.3919   30.0492  -76.4175 O.2       0 UNK        -0.5240 
      4 N         -82.6155   29.3893  -74.4003 N.am      1 UNK        -0.4739 
      5 CA        -81.2611   28.9974  -74.8037 C.3       1 UNK         0.0864 
      6 C6        -80.2902   28.9036  -73.5932 C.3       11 UNK        -0.0881 
      7 S7        -80.9757   28.0063  -72.1524 S.3       11 UNK        -0.2682 
      8 C8        -80.1987   28.8938  -70.7681 C.3       11 UNK         0.0289 
      9 C9        -78.7430   28.4894  -70.5939 C.ar      11 UNK        -0.0687 
     10 C10       -78.4352   27.2146  -70.1103 C.ar      11 UNK        -0.0823 
     11 C11       -77.1064   26.8285  -69.9206 C.ar      11 UNK        -0.0830 
     12 C12       -76.0818   27.7363  -70.1999 C.ar      11 UNK        -0.1021 
     13 C13       -76.3748   29.0112  -70.6925 C.ar      11 UNK        -0.0753 
     14 C14       -77.7087   29.3829  -70.8931 C.ar      11 UNK        -0.0933 
     15 C15       -75.2418   29.9847  -70.9767 C.3       11 UNK         0.0166 
     16 S16       -74.2756   29.4796  -72.4341 S.3       11 UNK        -0.2615 
     17 C17       -72.7906   30.5273  -72.2411 C.3       11 UNK        -0.0865 
     18 CA        -72.4629   31.3601  -73.5064 C.3       10 UNK         0.0862 
     19 C         -71.2489   32.2906  -73.2285 C.2       10 UNK         0.5551 
     20 N         -71.4951   33.5551  -72.9146 N.am      10 UNK        -0.7319 
     21 O         -70.0966   31.8623  -73.2440 O.2       10 UNK        -0.5018 
     22 N         -72.2741   30.4806  -74.6686 N.am      10 UNK        -0.4509 
     23 C         -71.9558   30.8473  -75.9163 C.2       10 UNK         0.4899 
     24 O         -71.8141   32.0182  -76.2717 O.2       10 UNK        -0.4839 
     25 CA        -71.8234   29.7245  -76.9656 C.3       9 UNK         0.0222 
     26 CB        -70.6170   29.9369  -77.9048 C.3       9 UNK        -0.1966 
     27 N         -71.8436   28.3625  -76.4098 N.am      9 UNK        -0.4218 
     28 C         -70.9045   27.7526  -75.6655 C.2       9 UNK         0.5020 
     29 O         -69.8454   28.2839  -75.3313 O.2       9 UNK        -0.5274 
     30 CA        -71.1915   26.3155  -75.1780 C.3       8 UNK         0.0270 
     31 CB        -71.4816   26.3175  -73.6672 C.3       8 UNK        -0.1976 
     32 N         -72.3036   25.6606  -75.8733 N.am      8 UNK        -0.4313 
     33 C         -72.2879   25.2828  -77.1618 C.2       8 UNK         0.5041 
     34 O         -71.2776   25.3167  -77.8651 O.2       8 UNK        -0.5577 
     35 CA        -73.6220   24.8325  -77.7956 C.3       7 UNK         0.0284 
     36 CB        -73.6600   23.3015  -77.9270 C.3       7 UNK        -0.1958 
     37 N         -74.8199   25.2879  -77.0786 N.am      7 UNK        -0.4454 
     38 C         -75.1282   26.5657  -76.8068 C.2       7 UNK         0.5089 
     39 O         -74.4931   27.5236  -77.2476 O.2       7 UNK        -0.5125 
     40 CA        -76.2776   26.8308  -75.8170 C.3       6 UNK         0.0408 
     41 CB        -77.5084   27.3751  -76.5539 C.3       6 UNK        -0.1791 
     42 N         -76.6565   25.6777  -74.9878 N.am      6 UNK        -0.4762 
     43 C         -75.8455   25.0697  -74.1041 C.2       6 UNK         0.5007 
     44 O         -74.6657   25.3898  -73.9498 O.2       6 UNK        -0.5032 
     45 CA        -76.4043   23.8686  -73.3170 C.3       5 UNK         0.0783 
     46 C46       -77.0802   24.2905  -71.9885 C.3       11 UNK        -0.0857 
     47 S47       -75.8596   24.4536  -70.6417 S.3       11 UNK        -0.2512 
     48 C48       -76.7783   25.4326  -69.4121 C.3       11 UNK         0.0225 
     49 N         -77.2993   23.0645  -74.1536 N.am      5 UNK        -0.4615 
     50 C         -77.1028   21.7692  -74.4392 C.2       4 UNK         0.5053 
     51 O         -76.1798   21.0976  -73.9771 O.2       4 UNK        -0.5105 
     52 CA        -78.0902   21.0889  -75.4074 C.3       4 UNK         0.0263 
     53 CB        -79.1490   20.2988  -74.6211 C.3       4 UNK        -0.1981 
     54 N         -78.7661   22.0069  -76.3261 N.am      4 UNK        -0.4224 
     55 C         -78.1617   22.7902  -77.2305 C.2       3 UNK         0.4895 
     56 O         -76.9478   22.8024  -77.4296 O.2       3 UNK        -0.5091 
     57 CA        -79.0580   23.7609  -78.0174 C.3       3 UNK         0.0250 
     58 CB        -79.4556   23.1408  -79.3664 C.3       3 UNK        -0.1996 
     59 N         -80.2697   24.2049  -77.3129 N.am      3 UNK        -0.4254 
     60 C         -80.3176   24.7860  -76.1048 C.2       2 UNK         0.5004 
     61 O         -79.3411   24.9224  -75.3612 O.2       2 UNK        -0.5226 
     62 CA        -81.7028   25.2545  -75.6291 C.3       2 UNK         0.0269 
     63 CB        -82.2742   24.2614  -74.6046 C.3       2 UNK        -0.1926 
     64 N         -81.6572   26.5885  -75.0270 N.am      2 UNK        -0.4687 
     65 C         -81.2805   27.7111  -75.6547 C.2       1 UNK         0.5165 
     66 O         -80.9831   27.7622  -76.8494 O.2       1 UNK        -0.5079 
     67 H67       -85.6981   29.5176  -75.0806 H         1 UNK         0.0900 
     68 H68       -85.1993   31.1768  -74.7394 H         1 UNK         0.0900 
     69 H69       -84.9512   29.9142  -73.5318 H         1 UNK         0.0900 
     70 H70       -82.8260   29.2355  -73.4237 H         1 UNK         0.2959 
     71 H71       -80.8781   29.7846  -75.4579 H         1 UNK         0.1079 
     72 H72       -80.0348   29.9161  -73.2777 H         1 UNK         0.0837 
     73 H73       -79.3419   28.4423  -73.8746 H         1 UNK         0.0837 
     74 H74       -80.2974   29.9710  -70.9112 H         1 UNK         0.0685 
     75 H75       -80.7441   28.6589  -69.8529 H         1 UNK         0.0685 
     76 H76       -79.2364   26.5222  -69.8893 H         1 UNK         0.1434 
     77 H77       -75.0512   27.4437  -70.0501 H         1 UNK         0.1329 
     78 H78       -77.9418   30.3700  -71.2684 H         1 UNK         0.1335 
     79 H79       -75.6229   30.9955  -71.1307 H         1 UNK         0.0680 
     80 H80       -74.5905   30.0262  -70.1022 H         1 UNK         0.0680 
     81 H81       -72.9271   31.1914  -71.3852 H         1 UNK         0.1032 
     82 H82       -71.9505   29.8791  -71.9830 H         1 UNK         0.1032 
     83 H83       -73.3268   31.9883  -73.7322 H         1 UNK         0.0461 
     84 H84       -70.7217   34.1697  -72.7134 H         1 UNK         0.3453 
     85 H85       -72.4376   33.9126  -72.8896 H         1 UNK         0.3453 
     86 H86       -72.3806   29.4952  -74.4844 H         1 UNK         0.2984 
     87 H87       -72.7226   29.7937  -77.5792 H         1 UNK         0.0554 
     88 H88       -70.5452   29.1407  -78.6457 H         1 UNK         0.0847 
     89 H89       -69.6754   29.9729  -77.3564 H         1 UNK         0.0847 
     90 H90       -70.7069   30.8772  -78.4500 H         1 UNK         0.0847 
     91 H91       -72.6958   27.8479  -76.6192 H         1 UNK         0.3141 
     92 H92       -70.2894   25.7261  -75.3541 H         1 UNK         0.0743 
     93 H93       -72.3726   26.8998  -73.4275 H         1 UNK         0.0784 
     94 H94       -71.6337   25.3059  -73.2901 H         1 UNK         0.0784 
     95 H95       -70.6503   26.7493  -73.1081 H         1 UNK         0.0784 
     96 H96       -73.1689   25.5696  -75.3480 H         1 UNK         0.3213 
     97 H97       -73.6587   25.2642  -78.7978 H         1 UNK         0.0855 
     98 H98       -73.7194   22.8133  -76.9534 H         1 UNK         0.0814 
     99 H99       -72.7658   22.9269  -78.4273 H         1 UNK         0.0814 
    100 H100      -74.5153   22.9766  -78.5192 H         1 UNK         0.0814 
    101 H101      -75.4224   24.5662  -76.7049 H         1 UNK         0.3105 
    102 H102      -75.9294   27.6098  -75.1351 H         1 UNK         0.0547 
    103 H103      -77.9219   26.6473  -77.2499 H         1 UNK         0.0837 
    104 H104      -78.2942   27.6517  -75.8542 H         1 UNK         0.0837 
    105 H105      -77.2591   28.2686  -77.1277 H         1 UNK         0.0837 
    106 H106      -77.6251   25.3724  -75.0706 H         1 UNK         0.3020 
    107 H107      -75.5284   23.2645  -73.0682 H         1 UNK         0.1245 
    108 H108      -77.6533   25.2118  -72.1093 H         1 UNK         0.0781 
    109 H109      -77.7981   23.5323  -71.6711 H         1 UNK         0.0781 
    110 H110      -77.6838   24.8927  -69.1306 H         1 UNK         0.0836 
    111 H111      -76.1769   25.5161  -68.5059 H         1 UNK         0.0836 
    112 H112      -78.0823   23.5494  -74.5795 H         1 UNK         0.3022 
    113 H113      -77.5150   20.3853  -76.0130 H         1 UNK         0.0747 
    114 H114      -79.7996   19.7324  -75.2877 H         1 UNK         0.0793 
    115 H115      -78.6797   19.5823  -73.9452 H         1 UNK         0.0793 
    116 H116      -79.7752   20.9556  -74.0157 H         1 UNK         0.0793 
    117 H117      -79.7689   22.0779  -76.2380 H         1 UNK         0.3047 
    118 H118      -78.4583   24.6483  -78.2222 H         1 UNK         0.0822 
    119 H119      -79.9877   23.8572  -79.9926 H         1 UNK         0.0807 
    120 H120      -80.0945   22.2662  -79.2369 H         1 UNK         0.0807 
    121 H121      -78.5743   22.8205  -79.9244 H         1 UNK         0.0807 
    122 H122      -81.1312   24.1198  -77.8334 H         1 UNK         0.2946 
    123 H123      -82.3771   25.3032  -76.4869 H         1 UNK         0.1144 
    124 H124      -83.2752   24.5520  -74.2850 H         1 UNK         0.0793 
    125 H125      -81.6449   24.1934  -73.7158 H         1 UNK         0.0793 
    126 H126      -82.3494   23.2591  -75.0285 H         1 UNK         0.0793 
    127 H127      -81.8380   26.6472  -74.0340 H         1 UNK         0.2896 
@<TRIPOS>BOND
     1    1    2 1    
     2    1   67 1    
     3    1   68 1    
     4    1   69 1    
     5    2    3 2    
     6    2    4 am   BACKBONE|DICT|INTERRES
     7    4    5 1    
     8    4   70 1    
     9    5    6 1    
    10    5   65 1    
    11    5   71 1    
    12    6    7 1    
    13    6   72 1    
    14    6   73 1    
    15    7    8 1    
    16    8    9 1    
    17    8   74 1    
    18    8   75 1    
    19    9   10 ar   
    20    9   14 ar   
    21   10   11 ar   
    22   10   76 1    
    23   11   12 ar   
    24   11   48 1    
    25   12   13 ar   
    26   12   77 1    
    27   13   14 ar   
    28   13   15 1    
    29   14   78 1    
    30   15   16 1    
    31   15   79 1    
    32   15   80 1    
    33   16   17 1    
    34   17   18 1    
    35   17   81 1    
    36   17   82 1    
    37   18   19 1    
    38   18   22 1    
    39   18   83 1    
    40   19   20 am   BACKBONE|DICT|INTERRES
    41   19   21 2    
    42   20   84 1    
    43   20   85 1    
    44   22   23 am   BACKBONE|DICT|INTERRES
    45   22   86 1    
    46   23   24 2    
    47   23   25 1    
    48   25   26 1    
    49   25   27 1    
    50   25   87 1    
    51   26   88 1    
    52   26   89 1    
    53   26   90 1    
    54   27   28 am   BACKBONE|DICT|INTERRES
    55   27   91 1    
    56   28   29 2    
    57   28   30 1    
    58   30   31 1    
    59   30   32 1    
    60   30   92 1    
    61   31   93 1    
    62   31   94 1    
    63   31   95 1    
    64   32   33 am   BACKBONE|DICT|INTERRES
    65   32   96 1    
    66   33   34 2    
    67   33   35 1    
    68   35   36 1    
    69   35   37 1    
    70   35   97 1    
    71   36   98 1    
    72   36   99 1    
    73   36  100 1    
    74   37   38 am   BACKBONE|DICT|INTERRES
    75   37  101 1    
    76   38   39 2    
    77   38   40 1    
    78   40   41 1    
    79   40   42 1    
    80   40  102 1    
    81   41  103 1    
    82   41  104 1    
    83   41  105 1    
    84   42   43 am   BACKBONE|DICT|INTERRES
    85   42  106 1    
    86   43   44 2    
    87   43   45 1    
    88   45   46 1    
    89   45   49 1    
    90   45  107 1    
    91   46   47 1    
    92   46  108 1    
    93   46  109 1    
    94   47   48 1    
    95   48  110 1    
    96   48  111 1    
    97   49   50 am   BACKBONE|DICT|INTERRES
    98   49  112 1    
    99   50   51 2    
   100   50   52 1    
   101   52   53 1    
   102   52   54 1    
   103   52  113 1    
   104   53  114 1    
   105   53  115 1    
   106   53  116 1    
   107   54   55 am   BACKBONE|DICT|INTERRES
   108   54  117 1    
   109   55   56 2    
   110   55   57 1    
   111   57   58 1    
   112   57   59 1    
   113   57  118 1    
   114   58  119 1    
   115   58  120 1    
   116   58  121 1    
   117   59   60 am   BACKBONE|DICT|INTERRES
   118   59  122 1    
   119   60   61 2    
   120   60   62 1    
   121   62   63 1    
   122   62   64 1    
   123   62  123 1    
   124   63  124 1    
   125   63  125 1    
   126   63  126 1    
   127   64   65 am   BACKBONE|DICT|INTERRES
   128   64  127 1    
   129   65   66 2    
@<TRIPOS>SUBSTRUCTURE
     1 UNK         1 GROUP             0       ****    0 ROOT    
