@<TRIPOS>MOLECULE
3R135
127   129    1
SMALL
USER_CHARGES


@<TRIPOS>ATOM
      1 CA        -79.6125   22.9431  -72.1263 C.3       0 UNK        -0.1998 
      2 C         -80.9483   22.4928  -71.5420 C.2       0 UNK         0.4909 
      3 O         -81.0930   21.3137  -71.2241 O.2       0 UNK        -0.5240 
      4 N         -81.9482   23.3686  -71.3601 N.am      1 UNK        -0.4739 
      5 CA        -82.0200   24.7938  -71.7153 C.3       1 UNK         0.0864 
      6 C6        -80.9416   25.6702  -71.0096 C.3       11 UNK        -0.0881 
      7 S7        -81.5866   27.3176  -70.5670 S.3       11 UNK        -0.2682 
      8 C8        -80.0850   28.1527  -69.9528 C.3       11 UNK         0.0289 
      9 C9        -79.0953   28.5416  -71.0489 C.ar      11 UNK        -0.0687 
     10 C10       -79.5325   29.1102  -72.2515 C.ar      11 UNK        -0.0823 
     11 C11       -78.6234   29.5051  -73.2383 C.ar      11 UNK        -0.0830 
     12 C12       -77.2536   29.3298  -72.9998 C.ar      11 UNK        -0.1021 
     13 C13       -76.7986   28.7726  -71.8028 C.ar      11 UNK        -0.0753 
     14 C14       -77.7234   28.3801  -70.8311 C.ar      11 UNK        -0.0933 
     15 C15       -75.3067   28.5853  -71.5744 C.3       11 UNK         0.0166 
     16 S16       -74.5148   30.1499  -71.0941 S.3       11 UNK        -0.2615 
     17 C17       -72.7744   29.6295  -70.9098 C.3       11 UNK        -0.0865 
     18 CA        -71.8673   30.1298  -72.0662 C.3       10 UNK         0.0862 
     19 C         -70.3641   29.8695  -71.7446 C.2       10 UNK         0.5551 
     20 N         -69.6302   29.0819  -72.5232 N.am      10 UNK        -0.7319 
     21 O         -69.8508   30.4017  -70.7635 O.2       10 UNK        -0.5018 
     22 N         -72.3112   29.6056  -73.3667 N.am      10 UNK        -0.4509 
     23 C         -71.9818   30.1152  -74.5605 C.2       10 UNK         0.4899 
     24 O         -71.3521   31.1637  -74.7075 O.2       10 UNK        -0.4839 
     25 CA        -72.4259   29.2992  -75.7928 C.3       9 UNK         0.0222 
     26 CB        -71.5830   29.6014  -77.0491 C.3       9 UNK        -0.1966 
     27 N         -72.4824   27.8515  -75.5411 N.am      9 UNK        -0.4218 
     28 C         -71.4752   27.0560  -75.1474 C.2       9 UNK         0.5020 
     29 O         -70.3255   27.4509  -74.9497 O.2       9 UNK        -0.5274 
     30 CA        -71.8087   25.5819  -74.8848 C.3       8 UNK         0.0270 
     31 CB        -72.3350   25.4040  -73.4492 C.3       8 UNK        -0.1976 
     32 N         -72.7965   25.0587  -75.8349 N.am      8 UNK        -0.4313 
     33 C         -72.5622   24.0624  -76.6990 C.2       8 UNK         0.5041 
     34 O         -71.4737   23.4969  -76.8163 O.2       8 UNK        -0.5577 
     35 CA        -73.7367   23.5854  -77.5697 C.3       7 UNK         0.0284 
     36 CB        -74.5774   22.5393  -76.8196 C.3       7 UNK        -0.1958 
     37 N         -74.6086   24.6586  -78.0526 N.am      7 UNK        -0.4454 
     38 C         -74.2728   25.5216  -79.0225 C.2       7 UNK         0.5089 
     39 O         -73.1541   25.5809  -79.5330 O.2       7 UNK        -0.5125 
     40 CA        -75.3796   26.4602  -79.5265 C.3       6 UNK         0.0408 
     41 CB        -76.3641   25.7036  -80.4338 C.3       6 UNK        -0.1791 
     42 N         -76.1056   27.0635  -78.4103 N.am      6 UNK        -0.4762 
     43 C         -75.7962   28.2490  -77.8660 C.2       6 UNK         0.5007 
     44 O         -74.9294   28.9981  -78.3162 O.2       6 UNK        -0.5032 
     45 CA        -76.5568   28.6744  -76.5905 C.3       5 UNK         0.0783 
     46 C46       -77.6949   29.6736  -76.9246 C.3       11 UNK        -0.0857 
     47 S47       -77.9490   30.9206  -75.6179 S.3       11 UNK        -0.2512 
     48 C48       -79.1779   30.1260  -74.5241 C.3       11 UNK         0.0225 
     49 N         -77.0352   27.5198  -75.8161 N.am      5 UNK        -0.4615 
     50 C         -76.2203   26.6513  -75.1974 C.2       4 UNK         0.5053 
     51 O         -74.9977   26.7805  -75.1705 O.2       4 UNK        -0.5105 
     52 CA        -76.8324   25.3930  -74.5582 C.3       4 UNK         0.0263 
     53 CB        -77.0253   25.5772  -73.0485 C.3       4 UNK        -0.1981 
     54 N         -78.0946   24.9714  -75.1616 N.am      4 UNK        -0.4224 
     55 C         -78.2610   24.6087  -76.4404 C.2       3 UNK         0.4895 
     56 O         -77.3407   24.5463  -77.2563 O.2       3 UNK        -0.5091 
     57 CA        -79.7009   24.3172  -76.8956 C.3       3 UNK         0.0250 
     58 CB        -79.9655   22.8039  -76.8820 C.3       3 UNK        -0.1996 
     59 N         -80.7283   24.9945  -76.0940 N.am      3 UNK        -0.4254 
     60 C         -80.8624   26.3194  -75.9468 C.2       2 UNK         0.5004 
     61 O         -80.0997   27.1387  -76.4576 O.2       2 UNK        -0.5226 
     62 CA        -82.0036   26.8151  -75.0421 C.3       2 UNK         0.0269 
     63 CB        -83.3800   26.5918  -75.6990 C.3       2 UNK        -0.1926 
     64 N         -81.9612   26.2836  -73.6699 N.am      2 UNK        -0.4687 
     65 C         -82.1220   25.0226  -73.2427 C.2       1 UNK         0.5165 
     66 O         -82.3407   24.0705  -73.9963 O.2       1 UNK        -0.5079 
     67 H67       -79.7404   23.5503  -73.0189 H         1 UNK         0.0900 
     68 H68       -79.0487   23.5072  -71.3847 H         1 UNK         0.0900 
     69 H69       -79.0126   22.0781  -72.4086 H         1 UNK         0.0900 
     70 H70       -82.8131   23.0014  -70.9879 H         1 UNK         0.2959 
     71 H71       -82.9960   25.0969  -71.3316 H         1 UNK         0.1079 
     72 H72       -80.6237   25.1986  -70.0781 H         1 UNK         0.0837 
     73 H73       -80.0397   25.7767  -71.6149 H         1 UNK         0.0837 
     74 H74       -80.3857   29.0605  -69.4284 H         1 UNK         0.0685 
     75 H75       -79.6085   27.5119  -69.2092 H         1 UNK         0.0685 
     76 H76       -80.5905   29.2611  -72.4157 H         1 UNK         0.1434 
     77 H77       -76.5217   29.6289  -73.7343 H         1 UNK         0.1329 
     78 H78       -77.3721   27.9551  -69.9007 H         1 UNK         0.1335 
     79 H79       -74.8434   28.2059  -72.4864 H         1 UNK         0.0680 
     80 H80       -75.1309   27.8363  -70.8006 H         1 UNK         0.0680 
     81 H81       -72.7141   28.5437  -70.8156 H         1 UNK         0.1032 
     82 H82       -72.4251   30.0286  -69.9554 H         1 UNK         0.1032 
     83 H83       -71.9701   31.2159  -72.1088 H         1 UNK         0.0461 
     84 H84       -70.0187   28.6406  -73.3494 H         1 UNK         0.3453 
     85 H85       -68.6606   28.9352  -72.2925 H         1 UNK         0.3453 
     86 H86       -72.8263   28.7400  -73.3446 H         1 UNK         0.2984 
     87 H87       -73.4485   29.6122  -76.0023 H         1 UNK         0.0554 
     88 H88       -71.6451   30.6562  -77.3189 H         1 UNK         0.0847 
     89 H89       -71.9366   29.0294  -77.9072 H         1 UNK         0.0847 
     90 H90       -70.5294   29.3651  -76.8973 H         1 UNK         0.0847 
     91 H91       -73.4159   27.4442  -75.5701 H         1 UNK         0.3141 
     92 H92       -70.8709   25.0281  -74.9641 H         1 UNK         0.0743 
     93 H93       -73.2751   25.9321  -73.2873 H         1 UNK         0.0784 
     94 H94       -72.5018   24.3514  -73.2199 H         1 UNK         0.0784 
     95 H95       -71.6174   25.7833  -72.7201 H         1 UNK         0.0784 
     96 H96       -73.7168   25.4857  -75.8098 H         1 UNK         0.3213 
     97 H97       -73.3073   23.0932  -78.4455 H         1 UNK         0.0855 
     98 H98       -75.0414   22.9542  -75.9259 H         1 UNK         0.0814 
     99 H99       -73.9596   21.6976  -76.5036 H         1 UNK         0.0814 
    100 H100      -75.3701   22.1392  -77.4522 H         1 UNK         0.0814 
    101 H101      -75.5720   24.6495  -77.7230 H         1 UNK         0.3105 
    102 H102      -74.9100   27.2393  -80.1311 H         1 UNK         0.0547 
    103 H103      -77.1224   26.3738  -80.8386 H         1 UNK         0.0837 
    104 H104      -76.8774   24.9002  -79.9045 H         1 UNK         0.0837 
    105 H105      -75.8447   25.2541  -81.2811 H         1 UNK         0.0837 
    106 H106      -76.8058   26.4855  -77.9610 H         1 UNK         0.3020 
    107 H107      -75.8161   29.1934  -75.9793 H         1 UNK         0.1245 
    108 H108      -78.6287   29.1602  -77.1543 H         1 UNK         0.0781 
    109 H109      -77.4599   30.2483  -77.8233 H         1 UNK         0.0781 
    110 H110      -79.7319   29.3690  -75.0777 H         1 UNK         0.0836 
    111 H111      -79.9061   30.8908  -74.2499 H         1 UNK         0.0836 
    112 H112      -78.0341   27.3488  -75.8296 H         1 UNK         0.3022 
    113 H113      -76.1134   24.5861  -74.7028 H         1 UNK         0.0747 
    114 H114      -77.2702   24.6330  -72.5648 H         1 UNK         0.0793 
    115 H115      -76.1124   25.9433  -72.5781 H         1 UNK         0.0793 
    116 H116      -77.8218   26.2880  -72.8290 H         1 UNK         0.0793 
    117 H117      -78.9159   25.0180  -74.5795 H         1 UNK         0.3047 
    118 H118      -79.7928   24.6766  -77.9226 H         1 UNK         0.0822 
    119 H119      -80.9468   22.5695  -77.2950 H         1 UNK         0.0807 
    120 H120      -79.9205   22.3951  -75.8716 H         1 UNK         0.0807 
    121 H121      -79.2269   22.2719  -77.4837 H         1 UNK         0.0807 
    122 H122      -81.3811   24.4072  -75.5802 H         1 UNK         0.2946 
    123 H123      -81.8686   27.8939  -74.9451 H         1 UNK         0.1144 
    124 H124      -83.6062   25.5346  -75.8394 H         1 UNK         0.0793 
    125 H125      -83.4220   27.0635  -76.6817 H         1 UNK         0.0793 
    126 H126      -84.1789   27.0267  -75.0983 H         1 UNK         0.0793 
    127 H127      -81.7791   26.9750  -72.9524 H         1 UNK         0.2896 
@<TRIPOS>BOND
     1    1    2 1    
     2    1   67 1    
     3    1   68 1    
     4    1   69 1    
     5    2    3 2    
     6    2    4 am   BACKBONE|DICT|INTERRES
     7    4    5 1    
     8    4   70 1    
     9    5    6 1    
    10    5   65 1    
    11    5   71 1    
    12    6    7 1    
    13    6   72 1    
    14    6   73 1    
    15    7    8 1    
    16    8    9 1    
    17    8   74 1    
    18    8   75 1    
    19    9   10 ar   
    20    9   14 ar   
    21   10   11 ar   
    22   10   76 1    
    23   11   12 ar   
    24   11   48 1    
    25   12   13 ar   
    26   12   77 1    
    27   13   14 ar   
    28   13   15 1    
    29   14   78 1    
    30   15   16 1    
    31   15   79 1    
    32   15   80 1    
    33   16   17 1    
    34   17   18 1    
    35   17   81 1    
    36   17   82 1    
    37   18   19 1    
    38   18   22 1    
    39   18   83 1    
    40   19   20 am   BACKBONE|DICT|INTERRES
    41   19   21 2    
    42   20   84 1    
    43   20   85 1    
    44   22   23 am   BACKBONE|DICT|INTERRES
    45   22   86 1    
    46   23   24 2    
    47   23   25 1    
    48   25   26 1    
    49   25   27 1    
    50   25   87 1    
    51   26   88 1    
    52   26   89 1    
    53   26   90 1    
    54   27   28 am   BACKBONE|DICT|INTERRES
    55   27   91 1    
    56   28   29 2    
    57   28   30 1    
    58   30   31 1    
    59   30   32 1    
    60   30   92 1    
    61   31   93 1    
    62   31   94 1    
    63   31   95 1    
    64   32   33 am   BACKBONE|DICT|INTERRES
    65   32   96 1    
    66   33   34 2    
    67   33   35 1    
    68   35   36 1    
    69   35   37 1    
    70   35   97 1    
    71   36   98 1    
    72   36   99 1    
    73   36  100 1    
    74   37   38 am   BACKBONE|DICT|INTERRES
    75   37  101 1    
    76   38   39 2    
    77   38   40 1    
    78   40   41 1    
    79   40   42 1    
    80   40  102 1    
    81   41  103 1    
    82   41  104 1    
    83   41  105 1    
    84   42   43 am   BACKBONE|DICT|INTERRES
    85   42  106 1    
    86   43   44 2    
    87   43   45 1    
    88   45   46 1    
    89   45   49 1    
    90   45  107 1    
    91   46   47 1    
    92   46  108 1    
    93   46  109 1    
    94   47   48 1    
    95   48  110 1    
    96   48  111 1    
    97   49   50 am   BACKBONE|DICT|INTERRES
    98   49  112 1    
    99   50   51 2    
   100   50   52 1    
   101   52   53 1    
   102   52   54 1    
   103   52  113 1    
   104   53  114 1    
   105   53  115 1    
   106   53  116 1    
   107   54   55 am   BACKBONE|DICT|INTERRES
   108   54  117 1    
   109   55   56 2    
   110   55   57 1    
   111   57   58 1    
   112   57   59 1    
   113   57  118 1    
   114   58  119 1    
   115   58  120 1    
   116   58  121 1    
   117   59   60 am   BACKBONE|DICT|INTERRES
   118   59  122 1    
   119   60   61 2    
   120   60   62 1    
   121   62   63 1    
   122   62   64 1    
   123   62  123 1    
   124   63  124 1    
   125   63  125 1    
   126   63  126 1    
   127   64   65 am   BACKBONE|DICT|INTERRES
   128   64  127 1    
   129   65   66 2    
@<TRIPOS>SUBSTRUCTURE
     1 UNK         1 GROUP             0       ****    0 ROOT    
