@<TRIPOS>MOLECULE
3R135
127   129    1
SMALL
USER_CHARGES


@<TRIPOS>ATOM
      1 CA        -79.9321   21.2374  -72.1432 C.3       0 UNK        -0.1998 
      2 C         -80.2302   22.7180  -72.3208 C.2       0 UNK         0.4909 
      3 O         -79.5063   23.4023  -73.0439 O.2       0 UNK        -0.5240 
      4 N         -81.2935   23.2168  -71.6726 N.am      1 UNK        -0.4739 
      5 CA        -81.7618   24.6086  -71.7373 C.3       1 UNK         0.0864 
      6 C6        -80.7647   25.5830  -71.0413 C.3       11 UNK        -0.0881 
      7 S7        -81.5620   27.1145  -70.4545 S.3       11 UNK        -0.2682 
      8 C8        -80.1267   28.0577  -69.8374 C.3       11 UNK         0.0289 
      9 C9        -79.1456   28.4742  -70.9307 C.ar      11 UNK        -0.0687 
     10 C10       -79.5983   29.0542  -72.1215 C.ar      11 UNK        -0.0823 
     11 C11       -78.7011   29.4569  -73.1161 C.ar      11 UNK        -0.0830 
     12 C12       -77.3283   29.2815  -72.8953 C.ar      11 UNK        -0.1021 
     13 C13       -76.8581   28.7153  -71.7087 C.ar      11 UNK        -0.0753 
     14 C14       -77.7710   28.3123  -70.7300 C.ar      11 UNK        -0.0933 
     15 C15       -75.3632   28.5242  -71.5021 C.3       11 UNK         0.0166 
     16 S16       -74.5599   30.0815  -71.0180 S.3       11 UNK        -0.2615 
     17 C17       -72.8210   29.5493  -70.8513 C.3       11 UNK        -0.0865 
     18 CA        -71.9140   30.0708  -71.9985 C.3       10 UNK         0.0862 
     19 C         -70.4112   29.7956  -71.6870 C.2       10 UNK         0.5551 
     20 N         -69.6805   29.0308  -72.4909 N.am      10 UNK        -0.7319 
     21 O         -69.8950   30.2948  -70.6902 O.2       10 UNK        -0.5018 
     22 N         -72.3634   29.5803  -73.3105 N.am      10 UNK        -0.4509 
     23 C         -72.0362   30.1210  -74.4913 C.2       10 UNK         0.4899 
     24 O         -71.4032   31.1710  -74.6119 O.2       10 UNK        -0.4839 
     25 CA        -72.4867   29.3404  -75.7437 C.3       9 UNK         0.0222 
     26 CB        -71.6601   29.6878  -76.9991 C.3       9 UNK        -0.1966 
     27 N         -72.5291   27.8856  -75.5357 N.am      9 UNK        -0.4218 
     28 C         -71.5126   27.0849  -75.1788 C.2       9 UNK         0.5020 
     29 O         -70.3633   27.4816  -74.9823 O.2       9 UNK        -0.5274 
     30 CA        -71.8322   25.6001  -74.9598 C.3       8 UNK         0.0270 
     31 CB        -72.3253   25.3691  -73.5200 C.3       8 UNK        -0.1976 
     32 N         -72.8368   25.0997  -75.9054 N.am      8 UNK        -0.4313 
     33 C         -72.6342   24.0911  -76.7634 C.2       8 UNK         0.5041 
     34 O         -71.5637   23.4914  -76.8761 O.2       8 UNK        -0.5577 
     35 CA        -73.8204   23.6453  -77.6357 C.3       7 UNK         0.0284 
     36 CB        -74.6601   22.5815  -76.9100 C.3       7 UNK        -0.1958 
     37 N         -74.6908   24.7357  -78.0818 N.am      7 UNK        -0.4454 
     38 C         -74.3619   25.6134  -79.0409 C.2       7 UNK         0.5089 
     39 O         -73.2510   25.6707  -79.5685 O.2       7 UNK        -0.5125 
     40 CA        -75.4663   26.5728  -79.5092 C.3       6 UNK         0.0408 
     41 CB        -76.4544   25.8501  -80.4396 C.3       6 UNK        -0.1791 
     42 N         -76.1894   27.1360  -78.3706 N.am      6 UNK        -0.4762 
     43 C         -75.8871   28.3074  -77.7939 C.2       6 UNK         0.5007 
     44 O         -75.0308   29.0779  -78.2277 O.2       6 UNK        -0.5032 
     45 CA        -76.6434   28.6875  -76.5019 C.3       5 UNK         0.0783 
     46 C46       -77.8030   29.6717  -76.8064 C.3       11 UNK        -0.0857 
     47 S47       -78.0572   30.9017  -75.4841 S.3       11 UNK        -0.2512 
     48 C48       -79.2702   30.0797  -74.3941 C.3       11 UNK         0.0225 
     49 N         -77.0868   27.5054  -75.7454 N.am      5 UNK        -0.4615 
     50 C         -76.2412   26.6423  -75.1606 C.2       4 UNK         0.5053 
     51 O         -75.0222   26.8024  -75.1559 O.2       4 UNK        -0.5105 
     52 CA        -76.8014   25.3564  -74.5270 C.3       4 UNK         0.0263 
     53 CB        -76.9516   25.5203  -73.0099 C.3       4 UNK        -0.1981 
     54 N         -78.0653   24.8853  -75.0925 N.am      4 UNK        -0.4224 
     55 C         -78.2949   24.6130  -76.3844 C.2       3 UNK         0.4895 
     56 O         -77.4341   24.6890  -77.2625 O.2       3 UNK        -0.5091 
     57 CA        -79.7402   24.2556  -76.7702 C.3       3 UNK         0.0250 
     58 CB        -79.9675   22.7402  -76.6614 C.3       3 UNK        -0.1996 
     59 N         -80.7484   24.9621  -75.9707 N.am      3 UNK        -0.4254 
     60 C         -80.8885   26.2932  -75.8897 C.2       2 UNK         0.5004 
     61 O         -80.1799   27.0887  -76.5053 O.2       2 UNK        -0.5226 
     62 CA        -81.9566   26.8391  -74.9249 C.3       2 UNK         0.0269 
     63 CB        -83.3718   26.7404  -75.5273 C.3       2 UNK        -0.1926 
     64 N         -81.8763   26.2531  -73.5786 N.am      2 UNK        -0.4687 
     65 C         -82.1417   24.9983  -73.1894 C.2       1 UNK         0.5165 
     66 O         -82.6323   24.1475  -73.9371 O.2       1 UNK        -0.5079 
     67 H67       -79.9636   20.7323  -73.1082 H         1 UNK         0.0900 
     68 H68       -78.9363   21.1050  -71.7213 H         1 UNK         0.0900 
     69 H69       -80.6496   20.7528  -71.4816 H         1 UNK         0.0900 
     70 H70       -81.8700   22.5941  -71.1238 H         1 UNK         0.2959 
     71 H71       -82.6980   24.6241  -71.1765 H         1 UNK         0.1079 
     72 H72       -80.3323   25.1002  -70.1633 H         1 UNK         0.0837 
     73 H73       -79.9187   25.8177  -71.6897 H         1 UNK         0.0837 
     74 H74       -80.4901   28.9574  -69.3394 H         1 UNK         0.0685 
     75 H75       -79.6246   27.4638  -69.0719 H         1 UNK         0.0685 
     76 H76       -80.6593   29.2006  -72.2712 H         1 UNK         0.1434 
     77 H77       -76.6056   29.5852  -73.6370 H         1 UNK         0.1329 
     78 H78       -77.4085   27.8753  -69.8096 H         1 UNK         0.1335 
     79 H79       -74.9121   28.1538  -72.4238 H         1 UNK         0.0680 
     80 H80       -75.1786   27.7671  -70.7382 H         1 UNK         0.0680 
     81 H81       -72.7652   28.4614  -70.7819 H         1 UNK         0.1032 
     82 H82       -72.4673   29.9249  -69.8890 H         1 UNK         0.1032 
     83 H83       -72.0109   31.1582  -72.0148 H         1 UNK         0.0461 
     84 H84       -68.7112   28.8738  -72.2659 H         1 UNK         0.3453 
     85 H85       -70.0703   28.6190  -73.3313 H         1 UNK         0.3453 
     86 H86       -72.8818   28.7163  -73.3090 H         1 UNK         0.2984 
     87 H87       -73.5143   29.6507  -75.9324 H         1 UNK         0.0554 
     88 H88       -71.7328   30.7501  -77.2351 H         1 UNK         0.0847 
     89 H89       -72.0194   29.1403  -77.8707 H         1 UNK         0.0847 
     90 H90       -70.6032   29.4548  -76.8664 H         1 UNK         0.0847 
     91 H91       -73.4615   27.4748  -75.5602 H         1 UNK         0.3141 
     92 H92       -70.8920   25.0579  -75.0795 H         1 UNK         0.0743 
     93 H93       -73.2667   25.8821  -73.3212 H         1 UNK         0.0784 
     94 H94       -72.4771   24.3079  -73.3224 H         1 UNK         0.0784 
     95 H95       -71.5959   25.7316  -72.7941 H         1 UNK         0.0784 
     96 H96       -73.7462   25.5492  -75.8771 H         1 UNK         0.3213 
     97 H97       -73.4006   23.1755  -78.5283 H         1 UNK         0.0855 
     98 H98       -75.1126   22.9700  -75.9991 H         1 UNK         0.0814 
     99 H99       -74.0441   21.7269  -76.6267 H         1 UNK         0.0814 
    100 H100      -75.4613   22.2054  -77.5467 H         1 UNK         0.0814 
    101 H101      -75.6482   24.7328  -77.7357 H         1 UNK         0.3105 
    102 H102      -74.9955   27.3713  -80.0868 H         1 UNK         0.0547 
    103 H103      -77.2123   26.5354  -80.8189 H         1 UNK         0.0837 
    104 H104      -76.9680   25.0304  -79.9359 H         1 UNK         0.0837 
    105 H105      -75.9382   25.4287  -81.3032 H         1 UNK         0.0837 
    106 H106      -76.8788   26.5352  -77.9313 H         1 UNK         0.3020 
    107 H107      -75.9066   29.2091  -75.8880 H         1 UNK         0.1245 
    108 H108      -78.7312   29.1460  -77.0287 H         1 UNK         0.0781 
    109 H109      -77.5926   30.2606  -77.7019 H         1 UNK         0.0781 
    110 H110      -79.8076   29.3157  -74.9541 H         1 UNK         0.0836 
    111 H111      -80.0126   30.8283  -74.1137 H         1 UNK         0.0836 
    112 H112      -78.0798   27.3069  -75.7505 H         1 UNK         0.3022 
    113 H113      -76.0621   24.5747  -74.6998 H         1 UNK         0.0747 
    114 H114      -77.1787   24.5697  -72.5282 H         1 UNK         0.0793 
    115 H115      -76.0300   25.8900  -72.5601 H         1 UNK         0.0793 
    116 H116      -77.7497   26.2198  -72.7630 H         1 UNK         0.0793 
    117 H117      -78.8030   24.6766  -74.4258 H         1 UNK         0.3047 
    118 H118      -79.8806   24.5520  -77.8117 H         1 UNK         0.0822 
    119 H119      -80.9593   22.4612  -77.0176 H         1 UNK         0.0807 
    120 H120      -79.8698   22.3902  -75.6330 H         1 UNK         0.0807 
    121 H121      -79.2411   22.1923  -77.2634 H         1 UNK         0.0807 
    122 H122      -81.3669   24.3967  -75.3962 H         1 UNK         0.2946 
    123 H123      -81.7426   27.9006  -74.7938 H         1 UNK         0.1144 
    124 H124      -83.6585   25.7123  -75.7488 H         1 UNK         0.0793 
    125 H125      -83.4314   27.2973  -76.4633 H         1 UNK         0.0793 
    126 H126      -84.1191   27.1593  -74.8535 H         1 UNK         0.0793 
    127 H127      -81.4890   26.8622  -72.8690 H         1 UNK         0.2896 
@<TRIPOS>BOND
     1    1    2 1    
     2    1   67 1    
     3    1   68 1    
     4    1   69 1    
     5    2    3 2    
     6    2    4 am   BACKBONE|DICT|INTERRES
     7    4    5 1    
     8    4   70 1    
     9    5    6 1    
    10    5   65 1    
    11    5   71 1    
    12    6    7 1    
    13    6   72 1    
    14    6   73 1    
    15    7    8 1    
    16    8    9 1    
    17    8   74 1    
    18    8   75 1    
    19    9   10 ar   
    20    9   14 ar   
    21   10   11 ar   
    22   10   76 1    
    23   11   12 ar   
    24   11   48 1    
    25   12   13 ar   
    26   12   77 1    
    27   13   14 ar   
    28   13   15 1    
    29   14   78 1    
    30   15   16 1    
    31   15   79 1    
    32   15   80 1    
    33   16   17 1    
    34   17   18 1    
    35   17   81 1    
    36   17   82 1    
    37   18   19 1    
    38   18   22 1    
    39   18   83 1    
    40   19   20 am   BACKBONE|DICT|INTERRES
    41   19   21 2    
    42   20   84 1    
    43   20   85 1    
    44   22   23 am   BACKBONE|DICT|INTERRES
    45   22   86 1    
    46   23   24 2    
    47   23   25 1    
    48   25   26 1    
    49   25   27 1    
    50   25   87 1    
    51   26   88 1    
    52   26   89 1    
    53   26   90 1    
    54   27   28 am   BACKBONE|DICT|INTERRES
    55   27   91 1    
    56   28   29 2    
    57   28   30 1    
    58   30   31 1    
    59   30   32 1    
    60   30   92 1    
    61   31   93 1    
    62   31   94 1    
    63   31   95 1    
    64   32   33 am   BACKBONE|DICT|INTERRES
    65   32   96 1    
    66   33   34 2    
    67   33   35 1    
    68   35   36 1    
    69   35   37 1    
    70   35   97 1    
    71   36   98 1    
    72   36   99 1    
    73   36  100 1    
    74   37   38 am   BACKBONE|DICT|INTERRES
    75   37  101 1    
    76   38   39 2    
    77   38   40 1    
    78   40   41 1    
    79   40   42 1    
    80   40  102 1    
    81   41  103 1    
    82   41  104 1    
    83   41  105 1    
    84   42   43 am   BACKBONE|DICT|INTERRES
    85   42  106 1    
    86   43   44 2    
    87   43   45 1    
    88   45   46 1    
    89   45   49 1    
    90   45  107 1    
    91   46   47 1    
    92   46  108 1    
    93   46  109 1    
    94   47   48 1    
    95   48  110 1    
    96   48  111 1    
    97   49   50 am   BACKBONE|DICT|INTERRES
    98   49  112 1    
    99   50   51 2    
   100   50   52 1    
   101   52   53 1    
   102   52   54 1    
   103   52  113 1    
   104   53  114 1    
   105   53  115 1    
   106   53  116 1    
   107   54   55 am   BACKBONE|DICT|INTERRES
   108   54  117 1    
   109   55   56 2    
   110   55   57 1    
   111   57   58 1    
   112   57   59 1    
   113   57  118 1    
   114   58  119 1    
   115   58  120 1    
   116   58  121 1    
   117   59   60 am   BACKBONE|DICT|INTERRES
   118   59  122 1    
   119   60   61 2    
   120   60   62 1    
   121   62   63 1    
   122   62   64 1    
   123   62  123 1    
   124   63  124 1    
   125   63  125 1    
   126   63  126 1    
   127   64   65 am   BACKBONE|DICT|INTERRES
   128   64  127 1    
   129   65   66 2    
@<TRIPOS>SUBSTRUCTURE
     1 UNK         1 GROUP             0       ****    0 ROOT    
