@<TRIPOS>MOLECULE
3R135
127   129    1
SMALL
USER_CHARGES


@<TRIPOS>ATOM
      1 CA        -84.1405   30.9921  -76.9424 C.3       0 UNK        -0.1998 
      2 C         -83.5282   29.7536  -76.3053 C.2       0 UNK         0.4909 
      3 O         -84.2159   28.7435  -76.1551 O.2       0 UNK        -0.5240 
      4 N         -82.2440   29.8307  -75.9281 N.am      1 UNK        -0.4739 
      5 CA        -81.4411   28.7524  -75.3414 C.3       1 UNK         0.0864 
      6 C6        -81.9702   28.2903  -73.9522 C.3       11 UNK        -0.0881 
      7 S7        -80.6899   27.4203  -72.9886 S.3       11 UNK        -0.2682 
      8 C8        -80.0783   28.7739  -71.9239 C.3       11 UNK         0.0289 
      9 C9        -78.7279   28.4870  -71.2684 C.ar      11 UNK        -0.0687 
     10 C10       -78.4166   27.2199  -70.7623 C.ar      11 UNK        -0.0823 
     11 C11       -77.1819   26.9777  -70.1535 C.ar      11 UNK        -0.0830 
     12 C12       -76.2525   28.0143  -70.0426 C.ar      11 UNK        -0.1021 
     13 C13       -76.5540   29.2930  -70.5193 C.ar      11 UNK        -0.0753 
     14 C14       -77.7937   29.5206  -71.1299 C.ar      11 UNK        -0.0933 
     15 C15       -75.5448   30.4232  -70.3264 C.3       11 UNK         0.0166 
     16 S16       -75.2669   31.4306  -71.8198 S.3       11 UNK        -0.2615 
     17 C17       -74.6494   30.1826  -72.9946 C.3       11 UNK        -0.0865 
     18 CA        -73.1461   30.3374  -73.3338 C.3       10 UNK         0.0862 
     19 C         -72.2300   29.7338  -72.2344 C.2       10 UNK         0.5551 
     20 N         -71.9994   28.4278  -72.2390 N.am      10 UNK        -0.7319 
     21 O         -71.7172   30.4555  -71.3827 O.2       10 UNK        -0.5018 
     22 N         -72.8646   29.8240  -74.6826 N.am      10 UNK        -0.4509 
     23 C         -71.7812   30.1352  -75.4033 C.2       10 UNK         0.4899 
     24 O         -70.8633   30.8509  -74.9986 O.2       10 UNK        -0.4839 
     25 CA        -71.7615   29.5821  -76.8372 C.3       9 UNK         0.0222 
     26 CB        -70.5484   30.0551  -77.6687 C.3       9 UNK        -0.1966 
     27 N         -71.9173   28.1252  -76.8712 N.am      9 UNK        -0.4218 
     28 C         -71.0331   27.1870  -76.4982 C.2       9 UNK         0.5020 
     29 O         -69.9181   27.4464  -76.0432 O.2       9 UNK        -0.5274 
     30 CA        -71.4349   25.7023  -76.6644 C.3       8 UNK         0.0270 
     31 CB        -71.1007   24.8918  -75.3988 C.3       8 UNK        -0.1976 
     32 N         -72.8449   25.4851  -77.0046 N.am      8 UNK        -0.4313 
     33 C         -73.4204   25.7132  -78.1930 C.2       8 UNK         0.5041 
     34 O         -72.7990   26.0605  -79.1972 O.2       8 UNK        -0.5577 
     35 CA        -74.9570   25.6066  -78.2537 C.3       7 UNK         0.0284 
     36 CB        -75.3890   24.1920  -78.6690 C.3       7 UNK        -0.1958 
     37 N         -75.6193   25.9770  -76.9960 N.am      7 UNK        -0.4454 
     38 C         -75.5337   27.1792  -76.4063 C.2       7 UNK         0.5089 
     39 O         -74.9023   28.1307  -76.8675 O.2       7 UNK        -0.5125 
     40 CA        -76.1998   27.3246  -75.0323 C.3       6 UNK         0.0408 
     41 CB        -77.7075   27.5710  -75.1520 C.3       6 UNK        -0.1791 
     42 N         -75.9258   26.1730  -74.1716 N.am      6 UNK        -0.4762 
     43 C         -74.7396   25.9543  -73.5848 C.2       6 UNK         0.5007 
     44 O         -73.7998   26.7478  -73.6489 O.2       6 UNK        -0.5032 
     45 CA        -74.5326   24.6093  -72.8569 C.3       5 UNK         0.0783 
     46 C46       -74.8244   24.7026  -71.3344 C.3       11 UNK        -0.0857 
     47 S47       -76.5669   24.3779  -70.8819 S.3       11 UNK        -0.2512 
     48 C48       -76.8756   25.6046  -69.5783 C.3       11 UNK         0.0225 
     49 N         -75.2526   23.5031  -73.4940 N.am      5 UNK        -0.4615 
     50 C         -75.0036   23.0105  -74.7121 C.2       4 UNK         0.5053 
     51 O         -74.0748   23.3882  -75.4225 O.2       4 UNK        -0.5105 
     52 CA        -75.9933   21.9583  -75.2444 C.3       4 UNK         0.0263 
     53 CB        -75.5715   20.5495  -74.7989 C.3       4 UNK        -0.1981 
     54 N         -77.3826   22.2093  -74.8387 N.am      4 UNK        -0.4224 
     55 C         -78.0772   23.3128  -75.1502 C.2       3 UNK         0.4895 
     56 O         -77.6170   24.2387  -75.8220 O.2       3 UNK        -0.5091 
     57 CA        -79.4860   23.4251  -74.5432 C.3       3 UNK         0.0250 
     58 CB        -79.3986   23.8683  -73.0741 C.3       3 UNK        -0.1996 
     59 N         -80.3348   24.3770  -75.2615 N.am      3 UNK        -0.4254 
     60 C         -80.8419   24.1850  -76.4873 C.2       2 UNK         0.5004 
     61 O         -80.6534   23.1625  -77.1486 O.2       2 UNK        -0.5226 
     62 CA        -81.7400   25.2936  -77.0670 C.3       2 UNK         0.0269 
     63 CB        -83.1595   24.7583  -77.3259 C.3       2 UNK        -0.1926 
     64 N         -81.8412   26.4615  -76.1846 N.am      2 UNK        -0.4687 
     65 C         -81.2117   27.6274  -76.3775 C.2       1 UNK         0.5165 
     66 O         -80.4688   27.8482  -77.3354 O.2       1 UNK        -0.5079 
     67 H67       -84.9955   31.3305  -76.3578 H         1 UNK         0.0900 
     68 H68       -83.4275   31.8138  -77.0069 H         1 UNK         0.0900 
     69 H69       -84.4859   30.7630  -77.9502 H         1 UNK         0.0900 
     70 H70       -81.7365   30.6859  -76.1103 H         1 UNK         0.2959 
     71 H71       -80.4580   29.1975  -75.1776 H         1 UNK         0.1079 
     72 H72       -82.2994   29.1574  -73.3772 H         1 UNK         0.0837 
     73 H73       -82.8553   27.6584  -74.0373 H         1 UNK         0.0837 
     74 H74       -80.0058   29.6803  -72.5273 H         1 UNK         0.0685 
     75 H75       -80.8148   28.9745  -71.1449 H         1 UNK         0.0685 
     76 H76       -79.1364   26.4165  -70.8375 H         1 UNK         0.1434 
     77 H77       -75.3012   27.8307  -69.5618 H         1 UNK         0.1329 
     78 H78       -78.0329   30.5111  -71.4919 H         1 UNK         0.1335 
     79 H79       -74.5821   30.0301  -69.9953 H         1 UNK         0.0680 
     80 H80       -75.9018   31.0748  -69.5280 H         1 UNK         0.0680 
     81 H81       -74.8712   29.1728  -72.6450 H         1 UNK         0.1032 
     82 H82       -75.2461   30.3234  -73.8967 H         1 UNK         0.1032 
     83 H83       -72.9305   31.4076  -73.3700 H         1 UNK         0.0461 
     84 H84       -72.4903   27.8270  -72.8958 H         1 UNK         0.3453 
     85 H85       -71.3961   28.0273  -71.5397 H         1 UNK         0.3453 
     86 H86       -73.5431   29.1898  -75.0806 H         1 UNK         0.2984 
     87 H87       -72.6518   29.9820  -77.3250 H         1 UNK         0.0554 
     88 H88       -70.5352   31.1427  -77.7484 H         1 UNK         0.0847 
     89 H89       -70.5821   29.6566  -78.6827 H         1 UNK         0.0847 
     90 H90       -69.6004   29.7560  -77.2212 H         1 UNK         0.0847 
     91 H91       -72.8295   27.8086  -77.1801 H         1 UNK         0.3141 
     92 H92       -70.8308   25.3070  -77.4834 H         1 UNK         0.0743 
     93 H93       -70.0376   24.9483  -75.1618 H         1 UNK         0.0784 
     94 H94       -71.6475   25.2611  -74.5312 H         1 UNK         0.0784 
     95 H95       -71.3434   23.8367  -75.5262 H         1 UNK         0.0784 
     96 H96       -73.4284   25.0990  -76.2687 H         1 UNK         0.3213 
     97 H97       -75.3031   26.3062  -79.0174 H         1 UNK         0.0855 
     98 H98       -75.0219   23.4385  -77.9730 H         1 UNK         0.0814 
     99 H99       -74.9954   23.9405  -79.6547 H         1 UNK         0.0814 
    100 H100      -76.4745   24.1038  -78.7194 H         1 UNK         0.0814 
    101 H101      -76.2017   25.2692  -76.5529 H         1 UNK         0.3105 
    102 H102      -75.7734   28.2077  -74.5626 H         1 UNK         0.0547 
    103 H103      -78.1308   27.8019  -74.1766 H         1 UNK         0.0837 
    104 H104      -77.9128   28.4218  -75.8029 H         1 UNK         0.0837 
    105 H105      -78.2403   26.7138  -75.5613 H         1 UNK         0.0837 
    106 H106      -76.6319   25.4513  -74.1335 H         1 UNK         0.3020 
    107 H107      -73.4678   24.3887  -72.9627 H         1 UNK         0.1245 
    108 H108      -74.5016   25.6642  -70.9300 H         1 UNK         0.0781 
    109 H109      -74.2226   23.9565  -70.8134 H         1 UNK         0.0781 
    110 H110      -76.0246   25.6401  -68.8962 H         1 UNK         0.0836 
    111 H111      -77.7264   25.2722  -68.9818 H         1 UNK         0.0836 
    112 H112      -76.0362   23.1399  -72.9707 H         1 UNK         0.3022 
    113 H113      -75.9586   21.9945  -76.3345 H         1 UNK         0.0747 
    114 H114      -76.2091   19.7849  -75.2432 H         1 UNK         0.0793 
    115 H115      -74.5476   20.3338  -75.1081 H         1 UNK         0.0793 
    116 H116      -75.6151   20.4364  -73.7149 H         1 UNK         0.0793 
    117 H117      -77.8251   21.4974  -74.2749 H         1 UNK         0.3047 
    118 H118      -79.9628   22.4436  -74.5897 H         1 UNK         0.0822 
    119 H119      -78.8539   23.1390  -72.4740 H         1 UNK         0.0807 
    120 H120      -80.3884   23.9709  -72.6286 H         1 UNK         0.0807 
    121 H121      -78.8867   24.8264  -72.9712 H         1 UNK         0.0807 
    122 H122      -80.5134   25.2592  -74.8050 H         1 UNK         0.2946 
    123 H123      -81.3054   25.5808  -78.0273 H         1 UNK         0.1144 
    124 H124      -83.7963   25.5251  -77.7679 H         1 UNK         0.0793 
    125 H125      -83.6363   24.4155  -76.4068 H         1 UNK         0.0793 
    126 H126      -83.1421   23.9159  -78.0188 H         1 UNK         0.0793 
    127 H127      -82.4569   26.3742  -75.3884 H         1 UNK         0.2896 
@<TRIPOS>BOND
     1    1    2 1    
     2    1   67 1    
     3    1   68 1    
     4    1   69 1    
     5    2    3 2    
     6    2    4 am   BACKBONE|DICT|INTERRES
     7    4    5 1    
     8    4   70 1    
     9    5    6 1    
    10    5   65 1    
    11    5   71 1    
    12    6    7 1    
    13    6   72 1    
    14    6   73 1    
    15    7    8 1    
    16    8    9 1    
    17    8   74 1    
    18    8   75 1    
    19    9   10 ar   
    20    9   14 ar   
    21   10   11 ar   
    22   10   76 1    
    23   11   12 ar   
    24   11   48 1    
    25   12   13 ar   
    26   12   77 1    
    27   13   14 ar   
    28   13   15 1    
    29   14   78 1    
    30   15   16 1    
    31   15   79 1    
    32   15   80 1    
    33   16   17 1    
    34   17   18 1    
    35   17   81 1    
    36   17   82 1    
    37   18   19 1    
    38   18   22 1    
    39   18   83 1    
    40   19   20 am   BACKBONE|DICT|INTERRES
    41   19   21 2    
    42   20   84 1    
    43   20   85 1    
    44   22   23 am   BACKBONE|DICT|INTERRES
    45   22   86 1    
    46   23   24 2    
    47   23   25 1    
    48   25   26 1    
    49   25   27 1    
    50   25   87 1    
    51   26   88 1    
    52   26   89 1    
    53   26   90 1    
    54   27   28 am   BACKBONE|DICT|INTERRES
    55   27   91 1    
    56   28   29 2    
    57   28   30 1    
    58   30   31 1    
    59   30   32 1    
    60   30   92 1    
    61   31   93 1    
    62   31   94 1    
    63   31   95 1    
    64   32   33 am   BACKBONE|DICT|INTERRES
    65   32   96 1    
    66   33   34 2    
    67   33   35 1    
    68   35   36 1    
    69   35   37 1    
    70   35   97 1    
    71   36   98 1    
    72   36   99 1    
    73   36  100 1    
    74   37   38 am   BACKBONE|DICT|INTERRES
    75   37  101 1    
    76   38   39 2    
    77   38   40 1    
    78   40   41 1    
    79   40   42 1    
    80   40  102 1    
    81   41  103 1    
    82   41  104 1    
    83   41  105 1    
    84   42   43 am   BACKBONE|DICT|INTERRES
    85   42  106 1    
    86   43   44 2    
    87   43   45 1    
    88   45   46 1    
    89   45   49 1    
    90   45  107 1    
    91   46   47 1    
    92   46  108 1    
    93   46  109 1    
    94   47   48 1    
    95   48  110 1    
    96   48  111 1    
    97   49   50 am   BACKBONE|DICT|INTERRES
    98   49  112 1    
    99   50   51 2    
   100   50   52 1    
   101   52   53 1    
   102   52   54 1    
   103   52  113 1    
   104   53  114 1    
   105   53  115 1    
   106   53  116 1    
   107   54   55 am   BACKBONE|DICT|INTERRES
   108   54  117 1    
   109   55   56 2    
   110   55   57 1    
   111   57   58 1    
   112   57   59 1    
   113   57  118 1    
   114   58  119 1    
   115   58  120 1    
   116   58  121 1    
   117   59   60 am   BACKBONE|DICT|INTERRES
   118   59  122 1    
   119   60   61 2    
   120   60   62 1    
   121   62   63 1    
   122   62   64 1    
   123   62  123 1    
   124   63  124 1    
   125   63  125 1    
   126   63  126 1    
   127   64   65 am   BACKBONE|DICT|INTERRES
   128   64  127 1    
   129   65   66 2    
@<TRIPOS>SUBSTRUCTURE
     1 UNK         1 GROUP             0       ****    0 ROOT    
