@<TRIPOS>MOLECULE
3R135
127   129    1
SMALL
USER_CHARGES


@<TRIPOS>ATOM
      1 CA        -76.5321   27.1798  -71.8657 C.3       0 UNK        -0.1998 
      2 C         -77.4975   26.3431  -71.0432 C.2       0 UNK         0.4909 
      3 O         -77.0870   25.3429  -70.4539 O.2       0 UNK        -0.5240 
      4 N         -78.7743   26.7447  -70.9919 N.am      1 UNK        -0.4739 
      5 CA        -79.8307   26.0551  -70.2376 C.3       1 UNK         0.0864 
      6 C6        -81.0714   26.9485  -69.9834 C.3       11 UNK        -0.0881 
      7 S7        -80.6570   28.5533  -69.2114 S.3       11 UNK        -0.2682 
      8 C8        -81.1835   29.7481  -70.4838 C.3       11 UNK         0.0289 
      9 C9        -80.2325   29.7846  -71.6724 C.ar      11 UNK        -0.0687 
     10 C10       -80.4512   28.9520  -72.7736 C.ar      11 UNK        -0.0823 
     11 C11       -79.5767   28.9707  -73.8618 C.ar      11 UNK        -0.0830 
     12 C12       -78.5068   29.8680  -73.8719 C.ar      11 UNK        -0.1021 
     13 C13       -78.2793   30.7103  -72.7808 C.ar      11 UNK        -0.0753 
     14 C14       -79.1400   30.6592  -71.6788 C.ar      11 UNK        -0.0933 
     15 C15       -77.1083   31.6790  -72.8101 C.3       11 UNK         0.0166 
     16 S16       -75.5190   30.8245  -72.5702 S.3       11 UNK        -0.2615 
     17 C17       -74.3813   32.2246  -72.8546 C.3       11 UNK        -0.0865 
     18 CA        -72.9081   31.8172  -73.1257 C.3       10 UNK         0.0862 
     19 C         -72.1552   31.3566  -71.8412 C.2       10 UNK         0.5551 
     20 N         -71.3992   30.2652  -71.8564 N.am      10 UNK        -0.7319 
     21 O         -72.2394   32.0185  -70.8093 O.2       10 UNK        -0.5018 
     22 N         -72.8010   30.8932  -74.2665 N.am      10 UNK        -0.4509 
     23 C         -71.8059   30.8866  -75.1613 C.2       10 UNK         0.4899 
     24 O         -70.8969   31.7185  -75.1804 O.2       10 UNK        -0.4839 
     25 CA        -71.8301   29.7410  -76.1956 C.3       9 UNK         0.0222 
     26 CB        -70.5373   29.6666  -77.0345 C.3       9 UNK        -0.1966 
     27 N         -72.1240   28.4263  -75.6087 N.am      9 UNK        -0.4218 
     28 C         -71.4824   27.8277  -74.5914 C.2       9 UNK         0.5020 
     29 O         -70.5681   28.3428  -73.9476 O.2       9 UNK        -0.5274 
     30 CA        -71.9439   26.4110  -74.2268 C.3       8 UNK         0.0270 
     31 CB        -73.2516   26.4569  -73.4182 C.3       8 UNK        -0.1976 
     32 N         -72.1234   25.5909  -75.4261 N.am      8 UNK        -0.4313 
     33 C         -71.1447   24.8967  -76.0247 C.2       8 UNK         0.5041 
     34 O         -69.9933   24.8273  -75.5927 O.2       8 UNK        -0.5577 
     35 CA        -71.5019   24.1344  -77.3152 C.3       7 UNK         0.0284 
     36 CB        -71.8207   22.6642  -76.9974 C.3       7 UNK        -0.1958 
     37 N         -72.6295   24.7239  -78.0406 N.am      7 UNK        -0.4454 
     38 C         -72.5625   25.8482  -78.7672 C.2       7 UNK         0.5089 
     39 O         -71.5209   26.4701  -78.9743 O.2       7 UNK        -0.5125 
     40 CA        -73.8902   26.3867  -79.3357 C.3       6 UNK         0.0408 
     41 CB        -74.1021   25.8834  -80.7721 C.3       6 UNK        -0.1791 
     42 N         -75.0713   26.0574  -78.5249 N.am      6 UNK        -0.4762 
     43 C         -75.2579   26.4268  -77.2483 C.2       6 UNK         0.5007 
     44 O         -74.4203   27.0637  -76.6071 O.2       6 UNK        -0.5032 
     45 CA        -76.5617   25.9914  -76.5548 C.3       5 UNK         0.0783 
     46 C46       -77.1503   27.1272  -75.6795 C.3       11 UNK        -0.0857 
     47 S47       -78.6429   26.5737  -74.7860 S.3       11 UNK        -0.2512 
     48 C48       -79.7650   27.9870  -75.0021 C.3       11 UNK         0.0225 
     49 N         -77.5500   25.4704  -77.5107 N.am      5 UNK        -0.4615 
     50 C         -78.0579   24.2354  -77.4551 C.2       4 UNK         0.5053 
     51 O         -77.6112   23.3315  -76.7451 O.2       4 UNK        -0.5105 
     52 CA        -79.3070   23.9664  -78.2960 C.3       4 UNK         0.0263 
     53 CB        -79.0012   23.0440  -79.4879 C.3       4 UNK        -0.1981 
     54 N         -80.2719   23.3360  -77.4025 N.am      4 UNK        -0.4224 
     55 C         -81.5938   23.5413  -77.3981 C.2       3 UNK         0.4895 
     56 O         -82.1876   24.2112  -78.2440 O.2       3 UNK        -0.5091 
     57 CA        -82.3936   22.8962  -76.2497 C.3       3 UNK         0.0250 
     58 CB        -82.9328   21.5213  -76.6775 C.3       3 UNK        -0.1996 
     59 N         -81.6164   22.7500  -75.0125 N.am      3 UNK        -0.4254 
     60 C         -81.2652   23.7679  -74.2131 C.2       2 UNK         0.5004 
     61 O         -81.6220   24.9339  -74.3980 O.2       2 UNK        -0.5226 
     62 CA        -80.3680   23.4134  -73.0154 C.3       2 UNK         0.0269 
     63 CB        -79.0234   22.8202  -73.4776 C.3       2 UNK        -0.1926 
     64 N         -80.0866   24.6061  -72.2157 N.am      2 UNK        -0.4687 
     65 C         -80.2471   24.7177  -70.8906 C.2       1 UNK         0.5165 
     66 O         -80.6918   23.8149  -70.1796 O.2       1 UNK        -0.5079 
     67 H67       -75.7115   27.5364  -71.2440 H         1 UNK         0.0900 
     68 H68       -77.0214   28.0455  -72.3089 H         1 UNK         0.0900 
     69 H69       -76.1175   26.5748  -72.6700 H         1 UNK         0.0900 
     70 H70       -79.0540   27.5903  -71.4719 H         1 UNK         0.2959 
     71 H71       -79.4120   25.8006  -69.2610 H         1 UNK         0.1079 
     72 H72       -81.6332   27.1084  -70.9032 H         1 UNK         0.0837 
     73 H73       -81.7614   26.4362  -69.3099 H         1 UNK         0.0837 
     74 H74       -82.1976   29.5139  -70.8116 H         1 UNK         0.0685 
     75 H75       -81.2372   30.7383  -70.0287 H         1 UNK         0.0685 
     76 H76       -81.2922   28.2729  -72.7811 H         1 UNK         0.1434 
     77 H77       -77.8305   29.8921  -74.7152 H         1 UNK         0.1329 
     78 H78       -78.9659   31.3054  -70.8292 H         1 UNK         0.1335 
     79 H79       -77.2228   32.4456  -72.0420 H         1 UNK         0.0680 
     80 H80       -77.1024   32.1994  -73.7692 H         1 UNK         0.0680 
     81 H81       -74.4469   32.9104  -72.0076 H         1 UNK         0.1032 
     82 H82       -74.7450   32.7920  -73.7126 H         1 UNK         0.1032 
     83 H83       -72.4003   32.7417  -73.4068 H         1 UNK         0.0461 
     84 H84       -70.9172   29.9959  -71.0140 H         1 UNK         0.3453 
     85 H85       -71.2579   29.7290  -72.7053 H         1 UNK         0.3453 
     86 H86       -73.4989   30.1644  -74.3032 H         1 UNK         0.2984 
     87 H87       -72.6534   29.9614  -76.8766 H         1 UNK         0.0554 
     88 H88       -70.5961   28.8762  -77.7830 H         1 UNK         0.0847 
     89 H89       -69.6634   29.4728  -76.4115 H         1 UNK         0.0847 
     90 H90       -70.3589   30.6019  -77.5664 H         1 UNK         0.0847 
     91 H91       -72.9084   27.9294  -76.0281 H         1 UNK         0.3141 
     92 H92       -71.1770   25.9588  -73.5939 H         1 UNK         0.0743 
     93 H93       -74.0628   26.9230  -73.9770 H         1 UNK         0.0784 
     94 H94       -73.5745   25.4568  -73.1287 H         1 UNK         0.0784 
     95 H95       -73.1199   27.0324  -72.5006 H         1 UNK         0.0784 
     96 H96       -73.0207   25.6578  -75.8878 H         1 UNK         0.3213 
     97 H97       -70.6235   24.1595  -77.9642 H         1 UNK         0.0855 
     98 H98       -72.6975   22.5685  -76.3555 H         1 UNK         0.0814 
     99 H99       -70.9861   22.1879  -76.4807 H         1 UNK         0.0814 
    100 H100      -72.0044   22.0917  -77.9068 H         1 UNK         0.0814 
    101 H101      -73.5258   24.2680  -77.9501 H         1 UNK         0.3105 
    102 H102      -73.8092   27.4754  -79.3657 H         1 UNK         0.0547 
    103 H103      -73.2495   26.1368  -81.4039 H         1 UNK         0.0837 
    104 H104      -74.2228   24.8000  -80.8082 H         1 UNK         0.0837 
    105 H105      -74.9834   26.3361  -81.2266 H         1 UNK         0.0837 
    106 H106      -75.7990   25.5193  -78.9737 H         1 UNK         0.3020 
    107 H107      -76.2540   25.1961  -75.8717 H         1 UNK         0.1245 
    108 H108      -76.4263   27.4701  -74.9387 H         1 UNK         0.0781 
    109 H109      -77.3845   27.9946  -76.2982 H         1 UNK         0.0781 
    110 H110      -79.6059   28.4735  -75.9651 H         1 UNK         0.0836 
    111 H111      -80.7909   27.6152  -75.0176 H         1 UNK         0.0836 
    112 H112      -77.9738   26.1517  -78.1248 H         1 UNK         0.3022 
    113 H113      -79.7055   24.9149  -78.6634 H         1 UNK         0.0747 
    114 H114      -79.8997   22.8427  -80.0715 H         1 UNK         0.0793 
    115 H115      -78.2729   23.5012  -80.1587 H         1 UNK         0.0793 
    116 H116      -78.5925   22.0862  -79.1628 H         1 UNK         0.0793 
    117 H117      -79.8547   22.8043  -76.6498 H         1 UNK         0.3047 
    118 H118      -83.2466   23.5458  -76.0410 H         1 UNK         0.0822 
    119 H119      -83.5668   21.0853  -75.9052 H         1 UNK         0.0807 
    120 H120      -82.1268   20.8174  -76.8893 H         1 UNK         0.0807 
    121 H121      -83.5379   21.6044  -77.5816 H         1 UNK         0.0807 
    122 H122      -81.3064   21.8168  -74.7813 H         1 UNK         0.2946 
    123 H123      -80.9023   22.6711  -72.4180 H         1 UNK         0.1144 
    124 H124      -79.1588   21.8937  -74.0360 H         1 UNK         0.0793 
    125 H125      -78.3835   22.5878  -72.6261 H         1 UNK         0.0793 
    126 H126      -78.4782   23.5135  -74.1193 H         1 UNK         0.0793 
    127 H127      -79.7735   25.4137  -72.7393 H         1 UNK         0.2896 
@<TRIPOS>BOND
     1    1    2 1    
     2    1   67 1    
     3    1   68 1    
     4    1   69 1    
     5    2    3 2    
     6    2    4 am   BACKBONE|DICT|INTERRES
     7    4    5 1    
     8    4   70 1    
     9    5    6 1    
    10    5   65 1    
    11    5   71 1    
    12    6    7 1    
    13    6   72 1    
    14    6   73 1    
    15    7    8 1    
    16    8    9 1    
    17    8   74 1    
    18    8   75 1    
    19    9   10 ar   
    20    9   14 ar   
    21   10   11 ar   
    22   10   76 1    
    23   11   12 ar   
    24   11   48 1    
    25   12   13 ar   
    26   12   77 1    
    27   13   14 ar   
    28   13   15 1    
    29   14   78 1    
    30   15   16 1    
    31   15   79 1    
    32   15   80 1    
    33   16   17 1    
    34   17   18 1    
    35   17   81 1    
    36   17   82 1    
    37   18   19 1    
    38   18   22 1    
    39   18   83 1    
    40   19   20 am   BACKBONE|DICT|INTERRES
    41   19   21 2    
    42   20   84 1    
    43   20   85 1    
    44   22   23 am   BACKBONE|DICT|INTERRES
    45   22   86 1    
    46   23   24 2    
    47   23   25 1    
    48   25   26 1    
    49   25   27 1    
    50   25   87 1    
    51   26   88 1    
    52   26   89 1    
    53   26   90 1    
    54   27   28 am   BACKBONE|DICT|INTERRES
    55   27   91 1    
    56   28   29 2    
    57   28   30 1    
    58   30   31 1    
    59   30   32 1    
    60   30   92 1    
    61   31   93 1    
    62   31   94 1    
    63   31   95 1    
    64   32   33 am   BACKBONE|DICT|INTERRES
    65   32   96 1    
    66   33   34 2    
    67   33   35 1    
    68   35   36 1    
    69   35   37 1    
    70   35   97 1    
    71   36   98 1    
    72   36   99 1    
    73   36  100 1    
    74   37   38 am   BACKBONE|DICT|INTERRES
    75   37  101 1    
    76   38   39 2    
    77   38   40 1    
    78   40   41 1    
    79   40   42 1    
    80   40  102 1    
    81   41  103 1    
    82   41  104 1    
    83   41  105 1    
    84   42   43 am   BACKBONE|DICT|INTERRES
    85   42  106 1    
    86   43   44 2    
    87   43   45 1    
    88   45   46 1    
    89   45   49 1    
    90   45  107 1    
    91   46   47 1    
    92   46  108 1    
    93   46  109 1    
    94   47   48 1    
    95   48  110 1    
    96   48  111 1    
    97   49   50 am   BACKBONE|DICT|INTERRES
    98   49  112 1    
    99   50   51 2    
   100   50   52 1    
   101   52   53 1    
   102   52   54 1    
   103   52  113 1    
   104   53  114 1    
   105   53  115 1    
   106   53  116 1    
   107   54   55 am   BACKBONE|DICT|INTERRES
   108   54  117 1    
   109   55   56 2    
   110   55   57 1    
   111   57   58 1    
   112   57   59 1    
   113   57  118 1    
   114   58  119 1    
   115   58  120 1    
   116   58  121 1    
   117   59   60 am   BACKBONE|DICT|INTERRES
   118   59  122 1    
   119   60   61 2    
   120   60   62 1    
   121   62   63 1    
   122   62   64 1    
   123   62  123 1    
   124   63  124 1    
   125   63  125 1    
   126   63  126 1    
   127   64   65 am   BACKBONE|DICT|INTERRES
   128   64  127 1    
   129   65   66 2    
@<TRIPOS>SUBSTRUCTURE
     1 UNK         1 GROUP             0       ****    0 ROOT    
