@<TRIPOS>MOLECULE
3R135
127   129    1
SMALL
USER_CHARGES


@<TRIPOS>ATOM
      1 CA        -84.2498   24.9433  -71.4589 C.3       0 UNK        -0.1998 
      2 C         -83.9495   25.9425  -72.5659 C.2       0 UNK         0.4909 
      3 O         -84.8737   26.5368  -73.1210 O.2       0 UNK        -0.5240 
      4 N         -82.6641   26.1244  -72.8980 N.am      1 UNK        -0.4739 
      5 CA        -82.1849   27.0458  -73.9406 C.3       1 UNK         0.0864 
      6 C6        -80.7916   27.6299  -73.5766 C.3       11 UNK        -0.0881 
      7 S7        -80.6413   29.3886  -74.0518 S.3       11 UNK        -0.2682 
      8 C8        -80.0562   30.1659  -72.5121 C.3       11 UNK         0.0289 
      9 C9        -78.6202   29.7760  -72.1890 C.ar      11 UNK        -0.0687 
     10 C10       -78.3483   28.8686  -71.1604 C.ar      11 UNK        -0.0823 
     11 C11       -77.0310   28.5077  -70.8623 C.ar      11 UNK        -0.0830 
     12 C12       -75.9846   29.0678  -71.5993 C.ar      11 UNK        -0.1021 
     13 C13       -76.2397   29.9703  -72.6344 C.ar      11 UNK        -0.0753 
     14 C14       -77.5616   30.3276  -72.9183 C.ar      11 UNK        -0.0933 
     15 C15       -75.0975   30.5116  -73.4838 C.3       11 UNK         0.0166 
     16 S16       -74.0853   31.7432  -72.6041 S.3       11 UNK        -0.2615 
     17 C17       -72.7183   30.7239  -71.9410 C.3       11 UNK        -0.0865 
     18 CA        -71.4604   30.7484  -72.8502 C.3       10 UNK         0.0862 
     19 C         -70.2235   30.1192  -72.1408 C.2       10 UNK         0.5551 
     20 N         -69.5292   29.1479  -72.7235 N.am      10 UNK        -0.7319 
     21 O         -69.8778   30.5313  -71.0362 O.2       10 UNK        -0.5018 
     22 N         -71.7471   30.1665  -74.1702 N.am      10 UNK        -0.4509 
     23 C         -71.1536   30.5222  -75.3142 C.2       10 UNK         0.4899 
     24 O         -70.3311   31.4351  -75.4060 O.2       10 UNK        -0.4839 
     25 CA        -71.5514   29.7082  -76.5618 C.3       9 UNK         0.0222 
     26 CB        -70.5506   29.8718  -77.7252 C.3       9 UNK        -0.1966 
     27 N         -71.7903   28.2833  -76.2880 N.am      9 UNK        -0.4218 
     28 C         -70.9222   27.3986  -75.7652 C.2       9 UNK         0.5020 
     29 O         -69.8014   27.7087  -75.3587 O.2       9 UNK        -0.5274 
     30 CA        -71.3632   25.9239  -75.6474 C.3       8 UNK         0.0270 
     31 CB        -71.4238   25.4893  -74.1730 C.3       8 UNK        -0.1976 
     32 N         -72.6517   25.6429  -76.2849 N.am      8 UNK        -0.4313 
     33 C         -72.8550   25.5638  -77.6079 C.2       8 UNK         0.5041 
     34 O         -71.9489   25.6037  -78.4406 O.2       8 UNK        -0.5577 
     35 CA        -74.3148   25.4804  -78.0915 C.3       7 UNK         0.0284 
     36 CB        -74.6817   24.0471  -78.5088 C.3       7 UNK        -0.1958 
     37 N         -75.2821   25.9754  -77.1053 N.am      7 UNK        -0.4454 
     38 C         -75.4056   27.2604  -76.7410 C.2       7 UNK         0.5089 
     39 O         -74.7066   28.1670  -77.1933 O.2       7 UNK        -0.5125 
     40 CA        -76.4490   27.5799  -75.6598 C.3       6 UNK         0.0408 
     41 CB        -77.8149   27.8658  -76.2966 C.3       6 UNK        -0.1791 
     42 N         -76.5691   26.5190  -74.6550 N.am      6 UNK        -0.4762 
     43 C         -75.6255   26.2525  -73.7365 C.2       6 UNK         0.5007 
     44 O         -74.5783   26.8930  -73.6400 O.2       6 UNK        -0.5032 
     45 CA        -75.8460   25.0165  -72.8338 C.3       5 UNK         0.0783 
     46 C46       -76.6665   25.3450  -71.5610 C.3       11 UNK        -0.0857 
     47 S47       -75.6618   26.1390  -70.2634 S.3       11 UNK        -0.2512 
     48 C48       -76.7402   27.5158  -69.7417 C.3       11 UNK         0.0225 
     49 N         -76.4528   23.9019  -73.5643 N.am      5 UNK        -0.4615 
     50 C         -75.9235   23.2882  -74.6288 C.2       4 UNK         0.5053 
     51 O         -74.8131   23.5534  -75.0877 O.2       4 UNK        -0.5105 
     52 CA        -76.8017   22.2375  -75.3315 C.3       4 UNK         0.0263 
     53 CB        -77.7639   21.5038  -74.3705 C.3       4 UNK        -0.1981 
     54 N         -77.5455   22.7953  -76.4699 N.am      4 UNK        -0.4224 
     55 C         -78.3875   23.8416  -76.4669 C.2       3 UNK         0.4895 
     56 O         -78.5990   24.5542  -75.4823 O.2       3 UNK        -0.5091 
     57 CA        -79.1071   24.1826  -77.7878 C.3       3 UNK         0.0250 
     58 CB        -78.9889   23.0997  -78.8861 C.3       3 UNK        -0.1996 
     59 N         -80.5099   24.5374  -77.5383 N.am      3 UNK        -0.4254 
     60 C         -81.4624   23.7421  -77.0289 C.2       2 UNK         0.5004 
     61 O         -81.3041   22.5478  -76.7665 O.2       2 UNK        -0.5226 
     62 CA        -82.8097   24.4174  -76.7232 C.3       2 UNK         0.0269 
     63 CB        -83.9629   23.4035  -76.5997 C.3       2 UNK        -0.1926 
     64 N         -82.7205   25.1812  -75.4787 N.am      2 UNK        -0.4687 
     65 C         -82.2111   26.4153  -75.3570 C.2       1 UNK         0.5165 
     66 O         -81.7734   27.0484  -76.3196 O.2       1 UNK        -0.5079 
     67 H67       -83.3424   24.4892  -71.0610 H         1 UNK         0.0900 
     68 H68       -84.8909   24.1468  -71.8355 H         1 UNK         0.0900 
     69 H69       -84.7682   25.4384  -70.6382 H         1 UNK         0.0900 
     70 H70       -81.9492   25.5951  -72.4183 H         1 UNK         0.2959 
     71 H71       -82.8944   27.8756  -73.9837 H         1 UNK         0.1079 
     72 H72       -79.9781   27.0572  -74.0270 H         1 UNK         0.0837 
     73 H73       -80.6274   27.5610  -72.5007 H         1 UNK         0.0837 
     74 H74       -80.1163   31.2496  -72.6221 H         1 UNK         0.0685 
     75 H75       -80.7286   29.9060  -71.6930 H         1 UNK         0.0685 
     76 H76       -79.1642   28.4421  -70.5931 H         1 UNK         0.1434 
     77 H77       -74.9709   28.7686  -71.3819 H         1 UNK         0.1329 
     78 H78       -77.7730   31.0196  -73.7220 H         1 UNK         0.1335 
     79 H79       -75.4907   30.9781  -74.3883 H         1 UNK         0.0680 
     80 H80       -74.4748   29.6840  -73.8236 H         1 UNK         0.0680 
     81 H81       -72.4818   31.1198  -70.9514 H         1 UNK         0.1032 
     82 H82       -73.0439   29.6973  -71.7792 H         1 UNK         0.1032 
     83 H83       -71.1971   31.7977  -72.9971 H         1 UNK         0.0461 
     84 H84       -69.7668   28.8075  -73.6484 H         1 UNK         0.3453 
     85 H85       -68.7309   28.7641  -72.2437 H         1 UNK         0.3453 
     86 H86       -72.3841   29.3845  -74.1838 H         1 UNK         0.2984 
     87 H87       -72.5083   30.1146  -76.8925 H         1 UNK         0.0554 
     88 H88       -70.8669   29.3075  -78.6026 H         1 UNK         0.0847 
     89 H89       -69.5519   29.5313  -77.4496 H         1 UNK         0.0847 
     90 H90       -70.4663   30.9165  -78.0273 H         1 UNK         0.0847 
     91 H91       -72.7058   27.9471  -76.5672 H         1 UNK         0.3141 
     92 H92       -70.6010   25.3208  -76.1451 H         1 UNK         0.0743 
     93 H93       -71.7472   24.4527  -74.0750 H         1 UNK         0.0784 
     94 H94       -70.4420   25.5675  -73.7041 H         1 UNK         0.0784 
     95 H95       -72.1060   26.1111  -73.5938 H         1 UNK         0.0784 
     96 H96       -73.4523   25.5532  -75.6725 H         1 UNK         0.3213 
     97 H97       -74.3925   26.1158  -78.9767 H         1 UNK         0.0855 
     98 H98       -74.0081   23.6875  -79.2879 H         1 UNK         0.0814 
     99 H99       -75.6928   23.9978  -78.9115 H         1 UNK         0.0814 
    100 H100      -74.6123   23.3471  -77.6768 H         1 UNK         0.0814 
    101 H101      -75.8387   25.2850  -76.6236 H         1 UNK         0.3105 
    102 H102      -76.1268   28.4906  -75.1552 H         1 UNK         0.0547 
    103 H103      -77.7380   28.6435  -77.0576 H         1 UNK         0.0837 
    104 H104      -78.2424   26.9843  -76.7714 H         1 UNK         0.0837 
    105 H105      -78.5225   28.2196  -75.5513 H         1 UNK         0.0837 
    106 H106      -77.3803   25.9096  -74.7194 H         1 UNK         0.3020 
    107 H107      -74.8551   24.6736  -72.5265 H         1 UNK         0.1245 
    108 H108      -77.0565   24.4266  -71.1191 H         1 UNK         0.0781 
    109 H109      -77.5434   25.9483  -71.8032 H         1 UNK         0.0781 
    110 H110      -76.2579   28.0477  -68.9205 H         1 UNK         0.0836 
    111 H111      -77.6652   27.1011  -69.3378 H         1 UNK         0.0836 
    112 H112      -77.3956   23.6533  -73.3026 H         1 UNK         0.3022 
    113 H113      -76.1162   21.4932  -75.7402 H         1 UNK         0.0747 
    114 H114      -78.2409   20.6604  -74.8699 H         1 UNK         0.0793 
    115 H115      -77.2306   21.1034  -73.5070 H         1 UNK         0.0793 
    116 H116      -78.5593   22.1514  -73.9999 H         1 UNK         0.0793 
    117 H117      -77.4329   22.2954  -77.3406 H         1 UNK         0.3047 
    118 H118      -78.6279   25.0846  -78.1698 H         1 UNK         0.0822 
    119 H119      -79.3690   22.1321  -78.5559 H         1 UNK         0.0807 
    120 H120      -77.9546   22.9607  -79.2016 H         1 UNK         0.0807 
    121 H121      -79.5509   23.3848  -79.7756 H         1 UNK         0.0807 
    122 H122      -80.7318   25.5232  -77.6147 H         1 UNK         0.2946 
    123 H123      -83.0458   25.0917  -77.5501 H         1 UNK         0.1144 
    124 H124      -84.0549   22.8065  -77.5080 H         1 UNK         0.0793 
    125 H125      -83.8116   22.7128  -75.7691 H         1 UNK         0.0793 
    126 H126      -84.9174   23.9071  -76.4458 H         1 UNK         0.0793 
    127 H127      -83.0333   24.7171  -74.6386 H         1 UNK         0.2896 
@<TRIPOS>BOND
     1    1    2 1    
     2    1   67 1    
     3    1   68 1    
     4    1   69 1    
     5    2    3 2    
     6    2    4 am   BACKBONE|DICT|INTERRES
     7    4    5 1    
     8    4   70 1    
     9    5    6 1    
    10    5   65 1    
    11    5   71 1    
    12    6    7 1    
    13    6   72 1    
    14    6   73 1    
    15    7    8 1    
    16    8    9 1    
    17    8   74 1    
    18    8   75 1    
    19    9   10 ar   
    20    9   14 ar   
    21   10   11 ar   
    22   10   76 1    
    23   11   12 ar   
    24   11   48 1    
    25   12   13 ar   
    26   12   77 1    
    27   13   14 ar   
    28   13   15 1    
    29   14   78 1    
    30   15   16 1    
    31   15   79 1    
    32   15   80 1    
    33   16   17 1    
    34   17   18 1    
    35   17   81 1    
    36   17   82 1    
    37   18   19 1    
    38   18   22 1    
    39   18   83 1    
    40   19   20 am   BACKBONE|DICT|INTERRES
    41   19   21 2    
    42   20   84 1    
    43   20   85 1    
    44   22   23 am   BACKBONE|DICT|INTERRES
    45   22   86 1    
    46   23   24 2    
    47   23   25 1    
    48   25   26 1    
    49   25   27 1    
    50   25   87 1    
    51   26   88 1    
    52   26   89 1    
    53   26   90 1    
    54   27   28 am   BACKBONE|DICT|INTERRES
    55   27   91 1    
    56   28   29 2    
    57   28   30 1    
    58   30   31 1    
    59   30   32 1    
    60   30   92 1    
    61   31   93 1    
    62   31   94 1    
    63   31   95 1    
    64   32   33 am   BACKBONE|DICT|INTERRES
    65   32   96 1    
    66   33   34 2    
    67   33   35 1    
    68   35   36 1    
    69   35   37 1    
    70   35   97 1    
    71   36   98 1    
    72   36   99 1    
    73   36  100 1    
    74   37   38 am   BACKBONE|DICT|INTERRES
    75   37  101 1    
    76   38   39 2    
    77   38   40 1    
    78   40   41 1    
    79   40   42 1    
    80   40  102 1    
    81   41  103 1    
    82   41  104 1    
    83   41  105 1    
    84   42   43 am   BACKBONE|DICT|INTERRES
    85   42  106 1    
    86   43   44 2    
    87   43   45 1    
    88   45   46 1    
    89   45   49 1    
    90   45  107 1    
    91   46   47 1    
    92   46  108 1    
    93   46  109 1    
    94   47   48 1    
    95   48  110 1    
    96   48  111 1    
    97   49   50 am   BACKBONE|DICT|INTERRES
    98   49  112 1    
    99   50   51 2    
   100   50   52 1    
   101   52   53 1    
   102   52   54 1    
   103   52  113 1    
   104   53  114 1    
   105   53  115 1    
   106   53  116 1    
   107   54   55 am   BACKBONE|DICT|INTERRES
   108   54  117 1    
   109   55   56 2    
   110   55   57 1    
   111   57   58 1    
   112   57   59 1    
   113   57  118 1    
   114   58  119 1    
   115   58  120 1    
   116   58  121 1    
   117   59   60 am   BACKBONE|DICT|INTERRES
   118   59  122 1    
   119   60   61 2    
   120   60   62 1    
   121   62   63 1    
   122   62   64 1    
   123   62  123 1    
   124   63  124 1    
   125   63  125 1    
   126   63  126 1    
   127   64   65 am   BACKBONE|DICT|INTERRES
   128   64  127 1    
   129   65   66 2    
@<TRIPOS>SUBSTRUCTURE
     1 UNK         1 GROUP             0       ****    0 ROOT    
