@<TRIPOS>MOLECULE
3R135
127   129    1
SMALL
USER_CHARGES


@<TRIPOS>ATOM
      1 CA        -86.7517   28.7282  -70.7190 C.3       0 UNK        -0.1998 
      2 C         -85.6480   28.1106  -71.5650 C.2       0 UNK         0.4909 
      3 O         -85.9047   27.1520  -72.2942 O.2       0 UNK        -0.5240 
      4 N         -84.4256   28.6520  -71.4658 N.am      1 UNK        -0.4739 
      5 CA        -83.2335   28.2483  -72.2211 C.3       1 UNK         0.0864 
      6 C6        -82.7613   26.8038  -71.8713 C.3       11 UNK        -0.0881 
      7 S7        -81.0281   26.4691  -72.3412 S.3       11 UNK        -0.2682 
      8 C8        -80.1419   26.9555  -70.8354 C.3       11 UNK         0.0289 
      9 C9        -78.6426   27.0018  -71.0823 C.ar      11 UNK        -0.0687 
     10 C10       -77.8024   26.0179  -70.5515 C.ar      11 UNK        -0.0823 
     11 C11       -76.4182   26.0944  -70.7359 C.ar      11 UNK        -0.0830 
     12 C12       -75.8793   27.1627  -71.4604 C.ar      11 UNK        -0.1021 
     13 C13       -76.7115   28.1300  -72.0270 C.ar      11 UNK        -0.0753 
     14 C14       -78.0924   28.0489  -71.8282 C.ar      11 UNK        -0.0933 
     15 C15       -76.1156   29.2701  -72.8375 C.3       11 UNK         0.0166 
     16 S16       -75.5208   28.6922  -74.4586 S.3       11 UNK        -0.2615 
     17 C17       -75.3344   30.2821  -75.3421 C.3       11 UNK        -0.0865 
     18 CA        -73.8693   30.7590  -75.5199 C.3       10 UNK         0.0862 
     19 C         -73.2140   31.2329  -74.1877 C.2       10 UNK         0.5551 
     20 N         -72.0124   30.7933  -73.8318 N.am      10 UNK        -0.7319 
     21 O         -73.8039   32.0345  -73.4675 O.2       10 UNK        -0.5018 
     22 N         -73.0756   29.7885  -76.2877 N.am      10 UNK        -0.4509 
     23 C         -72.0734   30.1057  -77.1165 C.2       10 UNK         0.4899 
     24 O         -71.7578   31.2634  -77.3973 O.2       10 UNK        -0.4839 
     25 CA        -71.2878   28.9230  -77.7189 C.3       9 UNK         0.0222 
     26 CB        -69.9646   29.3590  -78.3831 C.3       9 UNK        -0.1966 
     27 N         -71.0437   27.8371  -76.7600 N.am      9 UNK        -0.4218 
     28 C         -70.4243   27.9278  -75.5698 C.2       9 UNK         0.5020 
     29 O         -69.9969   28.9850  -75.1039 O.2       9 UNK        -0.5274 
     30 CA        -70.2744   26.6448  -74.7306 C.3       8 UNK         0.0270 
     31 CB        -71.0678   26.7677  -73.4167 C.3       8 UNK        -0.1976 
     32 N         -70.7040   25.4416  -75.4486 N.am      8 UNK        -0.4313 
     33 C         -69.9397   24.7635  -76.3189 C.2       8 UNK         0.5041 
     34 O         -68.7601   25.0384  -76.5420 O.2       8 UNK        -0.5577 
     35 CA        -70.5873   23.5956  -77.0915 C.3       7 UNK         0.0284 
     36 CB        -70.2021   22.2522  -76.4508 C.3       7 UNK        -0.1958 
     37 N         -72.0475   23.6748  -77.1945 N.am      7 UNK        -0.4454 
     38 C         -72.7330   24.6478  -77.8115 C.2       7 UNK         0.5089 
     39 O         -72.2028   25.5774  -78.4198 O.2       7 UNK        -0.5125 
     40 CA        -74.2658   24.6216  -77.6565 C.3       6 UNK         0.0408 
     41 CB        -74.9153   23.8760  -78.8316 C.3       6 UNK        -0.1791 
     42 N         -74.7457   24.0485  -76.3906 N.am      6 UNK        -0.4762 
     43 C         -74.3844   24.4530  -75.1636 C.2       6 UNK         0.5007 
     44 O         -73.5290   25.3161  -74.9670 O.2       6 UNK        -0.5032 
     45 CA        -75.1066   23.7969  -73.9700 C.3       5 UNK         0.0783 
     46 C46       -74.4565   24.1770  -72.6134 C.3       11 UNK        -0.0857 
     47 S47       -75.3742   23.5469  -71.1657 S.3       11 UNK        -0.2512 
     48 C48       -75.5033   25.0397  -70.1275 C.3       11 UNK         0.0225 
     49 N         -76.5354   24.1174  -74.0357 N.am      5 UNK        -0.4615 
     50 C         -77.4292   23.4146  -74.7426 C.2       4 UNK         0.5053 
     51 O         -77.1388   22.4170  -75.4048 O.2       4 UNK        -0.5105 
     52 CA        -78.8804   23.9178  -74.7403 C.3       4 UNK         0.0263 
     53 CB        -79.6182   23.4136  -73.4899 C.3       4 UNK        -0.1981 
     54 N         -79.0047   25.3755  -74.8374 N.am      4 UNK        -0.4224 
     55 C         -78.5730   26.1175  -75.8692 C.2       3 UNK         0.4895 
     56 O         -77.9793   25.6572  -76.8462 O.2       3 UNK        -0.5091 
     57 CA        -78.9046   27.6208  -75.8007 C.3       3 UNK         0.0250 
     58 CB        -78.3261   28.4212  -76.9878 C.3       3 UNK        -0.1996 
     59 N         -80.3466   27.8668  -75.6558 N.am      3 UNK        -0.4254 
     60 C         -81.3327   27.4983  -76.4929 C.2       2 UNK         0.5004 
     61 O         -81.1500   26.9152  -77.5623 O.2       2 UNK        -0.5226 
     62 CA        -82.7690   27.8225  -76.0393 C.3       2 UNK         0.0269 
     63 CB        -83.8283   26.9369  -76.7230 C.3       2 UNK        -0.1926 
     64 N         -82.8764   27.6684  -74.5890 N.am      2 UNK        -0.4687 
     65 C         -83.3935   28.5543  -73.7322 C.2       1 UNK         0.5165 
     66 O         -83.9366   29.6038  -74.0862 O.2       1 UNK        -0.5079 
     67 H67       -86.3869   29.5582  -70.1140 H         1 UNK         0.0900 
     68 H68       -87.1735   27.9800  -70.0484 H         1 UNK         0.0900 
     69 H69       -87.5504   29.1012  -71.3595 H         1 UNK         0.0900 
     70 H70       -84.2987   29.4583  -70.8695 H         1 UNK         0.2959 
     71 H71       -82.4511   28.9304  -71.8845 H         1 UNK         0.1079 
     72 H72       -82.8582   26.6325  -70.7979 H         1 UNK         0.0837 
     73 H73       -83.4056   26.0582  -72.3408 H         1 UNK         0.0837 
     74 H74       -80.4839   27.9385  -70.5084 H         1 UNK         0.0685 
     75 H75       -80.3841   26.2575  -70.0323 H         1 UNK         0.0685 
     76 H76       -78.2223   25.2000  -69.9816 H         1 UNK         0.1434 
     77 H77       -74.8096   27.2437  -71.5964 H         1 UNK         0.1329 
     78 H78       -78.7430   28.8046  -72.2467 H         1 UNK         0.1335 
     79 H79       -75.2878   29.7208  -72.2880 H         1 UNK         0.0680 
     80 H80       -76.8595   30.0556  -72.9777 H         1 UNK         0.0680 
     81 H81       -75.7865   30.1619  -76.3273 H         1 UNK         0.1032 
     82 H82       -75.9300   31.0565  -74.8559 H         1 UNK         0.1032 
     83 H83       -73.9325   31.6678  -76.1215 H         1 UNK         0.0461 
     84 H84       -71.4807   30.1652  -74.4239 H         1 UNK         0.3453 
     85 H85       -71.6094   31.1221  -72.9694 H         1 UNK         0.3453 
     86 H86       -73.2593   28.8160  -76.0861 H         1 UNK         0.2984 
     87 H87       -71.9245   28.5020  -78.4983 H         1 UNK         0.0554 
     88 H88       -69.4447   28.5093  -78.8256 H         1 UNK         0.0847 
     89 H89       -69.2894   29.8297  -77.6676 H         1 UNK         0.0847 
     90 H90       -70.1450   30.0784  -79.1828 H         1 UNK         0.0847 
     91 H91       -71.3694   26.9246  -77.0612 H         1 UNK         0.3141 
     92 H92       -69.2175   26.5442  -74.4752 H         1 UNK         0.0743 
     93 H93       -71.0209   25.8486  -72.8325 H         1 UNK         0.0784 
     94 H94       -70.6648   27.5678  -72.7943 H         1 UNK         0.0784 
     95 H95       -72.1181   27.0011  -73.5947 H         1 UNK         0.0784 
     96 H96       -71.6824   25.1851  -75.3325 H         1 UNK         0.3213 
     97 H97       -70.1850   23.6198  -78.1066 H         1 UNK         0.0855 
     98 H98       -69.1179   22.1467  -76.3881 H         1 UNK         0.0814 
     99 H99       -70.5728   21.4107  -77.0364 H         1 UNK         0.0814 
    100 H100      -70.5968   22.1595  -75.4382 H         1 UNK         0.0814 
    101 H101      -72.5772   22.9615  -76.7150 H         1 UNK         0.3105 
    102 H102      -74.6084   25.6581  -77.6837 H         1 UNK         0.0547 
    103 H103      -74.5955   24.2963  -79.7862 H         1 UNK         0.0837 
    104 H104      -74.6512   22.8178  -78.8352 H         1 UNK         0.0837 
    105 H105      -76.0025   23.9521  -78.7948 H         1 UNK         0.0837 
    106 H106      -75.4876   23.3602  -76.4538 H         1 UNK         0.3020 
    107 H107      -74.9819   22.7171  -74.0815 H         1 UNK         0.1245 
    108 H108      -74.3428   25.2560  -72.5329 H         1 UNK         0.0781 
    109 H109      -73.4425   23.7760  -72.5630 H         1 UNK         0.0781 
    110 H110      -74.5062   25.4487  -69.9559 H         1 UNK         0.0836 
    111 H111      -75.8823   24.7518  -69.1457 H         1 UNK         0.0836 
    112 H112      -76.8370   24.9375  -73.5295 H         1 UNK         0.3022 
    113 H113      -79.3725   23.4925  -75.6175 H         1 UNK         0.0747 
    114 H114      -80.6814   23.6495  -73.5340 H         1 UNK         0.0793 
    115 H115      -79.5339   22.3299  -73.3962 H         1 UNK         0.0793 
    116 H116      -79.2127   23.8519  -72.5767 H         1 UNK         0.0793 
    117 H117      -79.4909   25.8352  -74.0785 H         1 UNK         0.3047 
    118 H118      -78.4320   27.9962  -74.8922 H         1 UNK         0.0822 
    119 H119      -78.7618   28.1139  -77.9388 H         1 UNK         0.0807 
    120 H120      -77.2484   28.2737  -77.0664 H         1 UNK         0.0807 
    121 H121      -78.4998   29.4902  -76.8671 H         1 UNK         0.0807 
    122 H122      -80.6220   28.3351  -74.8042 H         1 UNK         0.2946 
    123 H123      -82.9529   28.8613  -76.3231 H         1 UNK         0.1144 
    124 H124      -83.8115   27.0676  -77.8058 H         1 UNK         0.0793 
    125 H125      -83.6613   25.8790  -76.5167 H         1 UNK         0.0793 
    126 H126      -84.8330   27.1898  -76.3837 H         1 UNK         0.0793 
    127 H127      -82.4278   26.8494  -74.1967 H         1 UNK         0.2896 
@<TRIPOS>BOND
     1    1    2 1    
     2    1   67 1    
     3    1   68 1    
     4    1   69 1    
     5    2    3 2    
     6    2    4 am   BACKBONE|DICT|INTERRES
     7    4    5 1    
     8    4   70 1    
     9    5    6 1    
    10    5   65 1    
    11    5   71 1    
    12    6    7 1    
    13    6   72 1    
    14    6   73 1    
    15    7    8 1    
    16    8    9 1    
    17    8   74 1    
    18    8   75 1    
    19    9   10 ar   
    20    9   14 ar   
    21   10   11 ar   
    22   10   76 1    
    23   11   12 ar   
    24   11   48 1    
    25   12   13 ar   
    26   12   77 1    
    27   13   14 ar   
    28   13   15 1    
    29   14   78 1    
    30   15   16 1    
    31   15   79 1    
    32   15   80 1    
    33   16   17 1    
    34   17   18 1    
    35   17   81 1    
    36   17   82 1    
    37   18   19 1    
    38   18   22 1    
    39   18   83 1    
    40   19   20 am   BACKBONE|DICT|INTERRES
    41   19   21 2    
    42   20   84 1    
    43   20   85 1    
    44   22   23 am   BACKBONE|DICT|INTERRES
    45   22   86 1    
    46   23   24 2    
    47   23   25 1    
    48   25   26 1    
    49   25   27 1    
    50   25   87 1    
    51   26   88 1    
    52   26   89 1    
    53   26   90 1    
    54   27   28 am   BACKBONE|DICT|INTERRES
    55   27   91 1    
    56   28   29 2    
    57   28   30 1    
    58   30   31 1    
    59   30   32 1    
    60   30   92 1    
    61   31   93 1    
    62   31   94 1    
    63   31   95 1    
    64   32   33 am   BACKBONE|DICT|INTERRES
    65   32   96 1    
    66   33   34 2    
    67   33   35 1    
    68   35   36 1    
    69   35   37 1    
    70   35   97 1    
    71   36   98 1    
    72   36   99 1    
    73   36  100 1    
    74   37   38 am   BACKBONE|DICT|INTERRES
    75   37  101 1    
    76   38   39 2    
    77   38   40 1    
    78   40   41 1    
    79   40   42 1    
    80   40  102 1    
    81   41  103 1    
    82   41  104 1    
    83   41  105 1    
    84   42   43 am   BACKBONE|DICT|INTERRES
    85   42  106 1    
    86   43   44 2    
    87   43   45 1    
    88   45   46 1    
    89   45   49 1    
    90   45  107 1    
    91   46   47 1    
    92   46  108 1    
    93   46  109 1    
    94   47   48 1    
    95   48  110 1    
    96   48  111 1    
    97   49   50 am   BACKBONE|DICT|INTERRES
    98   49  112 1    
    99   50   51 2    
   100   50   52 1    
   101   52   53 1    
   102   52   54 1    
   103   52  113 1    
   104   53  114 1    
   105   53  115 1    
   106   53  116 1    
   107   54   55 am   BACKBONE|DICT|INTERRES
   108   54  117 1    
   109   55   56 2    
   110   55   57 1    
   111   57   58 1    
   112   57   59 1    
   113   57  118 1    
   114   58  119 1    
   115   58  120 1    
   116   58  121 1    
   117   59   60 am   BACKBONE|DICT|INTERRES
   118   59  122 1    
   119   60   61 2    
   120   60   62 1    
   121   62   63 1    
   122   62   64 1    
   123   62  123 1    
   124   63  124 1    
   125   63  125 1    
   126   63  126 1    
   127   64   65 am   BACKBONE|DICT|INTERRES
   128   64  127 1    
   129   65   66 2    
@<TRIPOS>SUBSTRUCTURE
     1 UNK         1 GROUP             0       ****    0 ROOT    
