@<TRIPOS>MOLECULE
3R135
127   129    1
SMALL
USER_CHARGES


@<TRIPOS>ATOM
      1 CA        -78.6274   25.2023  -69.4479 C.3       0 UNK        -0.1998 
      2 C         -79.9651   25.2089  -70.1728 C.2       0 UNK         0.4909 
      3 O         -80.9196   24.5899  -69.7018 O.2       0 UNK        -0.5240 
      4 N         -80.0421   25.8984  -71.3149 N.am      1 UNK        -0.4739 
      5 CA        -81.2173   25.9882  -72.1772 C.3       1 UNK         0.0864 
      6 C6        -82.2822   26.9856  -71.6362 C.3       11 UNK        -0.0881 
      7 S7        -82.0238   28.7647  -71.9670 S.3       11 UNK        -0.2682 
      8 C8        -80.6085   29.1933  -70.8956 C.3       11 UNK         0.0289 
      9 C9        -79.2959   29.2859  -71.6692 C.ar      11 UNK        -0.0687 
     10 C10       -79.2238   30.0464  -72.8415 C.ar      11 UNK        -0.0823 
     11 C11       -78.0266   30.1618  -73.5519 C.ar      11 UNK        -0.0830 
     12 C12       -76.8830   29.5217  -73.0664 C.ar      11 UNK        -0.1021 
     13 C13       -76.9362   28.7574  -71.8982 C.ar      11 UNK        -0.0753 
     14 C14       -78.1428   28.6479  -71.1987 C.ar      11 UNK        -0.0933 
     15 C15       -75.6789   28.0667  -71.3982 C.3       11 UNK         0.0166 
     16 S16       -74.7460   29.1694  -70.2938 S.3       11 UNK        -0.2615 
     17 C17       -73.0295   28.6186  -70.5769 C.3       11 UNK        -0.0865 
     18 CA        -72.2543   29.5976  -71.4968 C.3       10 UNK         0.0862 
     19 C         -70.7374   29.2663  -71.5031 C.2       10 UNK         0.5551 
     20 N         -69.9765   29.8378  -70.5801 N.am      10 UNK        -0.7319 
     21 O         -70.2542   28.4689  -72.3047 O.2       10 UNK        -0.5018 
     22 N         -72.8138   29.6120  -72.8542 N.am      10 UNK        -0.4509 
     23 C         -72.5899   30.5536  -73.7751 C.2       10 UNK         0.4899 
     24 O         -71.9613   31.5912  -73.5590 O.2       10 UNK        -0.4839 
     25 CA        -73.1462   30.2601  -75.1828 C.3       9 UNK         0.0222 
     26 CB        -73.0792   31.4822  -76.1167 C.3       9 UNK        -0.1966 
     27 N         -72.4469   29.1358  -75.8114 N.am      9 UNK        -0.4218 
     28 C         -72.6299   27.8469  -75.4990 C.2       9 UNK         0.5020 
     29 O         -73.4240   27.4614  -74.6386 O.2       9 UNK        -0.5274 
     30 CA        -71.7438   26.8291  -76.2222 C.3       8 UNK         0.0270 
     31 CB        -70.5786   26.3908  -75.3145 C.3       8 UNK        -0.1976 
     32 N         -72.5499   25.6755  -76.6168 N.am      8 UNK        -0.4313 
     33 C         -72.2089   24.7912  -77.5638 C.2       8 UNK         0.5041 
     34 O         -71.1475   24.8324  -78.1884 O.2       8 UNK        -0.5577 
     35 CA        -73.2249   23.6875  -77.8958 C.3       7 UNK         0.0284 
     36 CB        -73.2978   22.6325  -76.7784 C.3       7 UNK        -0.1958 
     37 N         -74.5493   24.2573  -78.1423 N.am      7 UNK        -0.4454 
     38 C         -74.9577   24.7287  -79.3293 C.2       7 UNK         0.5089 
     39 O         -74.2955   24.6388  -80.3640 O.2       7 UNK        -0.5125 
     40 CA        -76.3333   25.4220  -79.3896 C.3       6 UNK         0.0408 
     41 CB        -77.4146   24.4287  -79.8427 C.3       6 UNK        -0.1791 
     42 N         -76.7472   26.0370  -78.1273 N.am      6 UNK        -0.4762 
     43 C         -76.1157   27.0499  -77.5156 C.2       6 UNK         0.5007 
     44 O         -75.1369   27.6311  -77.9849 O.2       6 UNK        -0.5032 
     45 CA        -76.6482   27.4434  -76.1219 C.3       5 UNK         0.0783 
     46 C46       -77.7854   28.4927  -76.2401 C.3       11 UNK        -0.0857 
     47 S47       -77.1057   30.1882  -76.2232 S.3       11 UNK        -0.2512 
     48 C48       -77.9944   30.9826  -74.8388 C.3       11 UNK         0.0225 
     49 N         -77.0379   26.2849  -75.3065 N.am      5 UNK        -0.4615 
     50 C         -76.2424   25.2468  -75.0031 C.2       4 UNK         0.5053 
     51 O         -75.0818   25.1304  -75.3887 O.2       4 UNK        -0.5105 
     52 CA        -76.8678   24.1027  -74.1969 C.3       4 UNK         0.0263 
     53 CB        -76.9805   24.4721  -72.7092 C.3       4 UNK        -0.1981 
     54 N         -78.1756   23.7437  -74.7458 N.am      4 UNK        -0.4224 
     55 C         -78.3413   23.0689  -75.8945 C.2       3 UNK         0.4895 
     56 O         -77.4148   22.5808  -76.5417 O.2       3 UNK        -0.5091 
     57 CA        -79.7777   22.9356  -76.4309 C.3       3 UNK         0.0250 
     58 CB        -80.4346   21.6518  -75.8995 C.3       3 UNK        -0.1996 
     59 N         -80.6235   24.0870  -76.1058 N.am      3 UNK        -0.4254 
     60 C         -80.4461   25.3256  -76.5891 C.2       2 UNK         0.5004 
     61 O         -79.5761   25.6253  -77.4065 O.2       2 UNK        -0.5226 
     62 CA        -81.3585   26.4239  -76.0136 C.3       2 UNK         0.0269 
     63 CB        -82.6663   26.5178  -76.8146 C.3       2 UNK        -0.1926 
     64 N         -81.6641   26.2381  -74.5878 N.am      2 UNK        -0.4687 
     65 C         -80.7378   26.2468  -73.6188 C.2       1 UNK         0.5165 
     66 O         -79.5338   26.4046  -73.8441 O.2       1 UNK        -0.5079 
     67 H67       -78.7122   25.7324  -68.4997 H         1 UNK         0.0900 
     68 H68       -78.3192   24.1781  -69.2396 H         1 UNK         0.0900 
     69 H69       -77.8409   25.6754  -70.0340 H         1 UNK         0.0900 
     70 H70       -79.2333   26.3669  -71.7049 H         1 UNK         0.2959 
     71 H71       -81.6734   24.9956  -72.1972 H         1 UNK         0.1079 
     72 H72       -82.4193   26.8490  -70.5624 H         1 UNK         0.0837 
     73 H73       -83.2498   26.7313  -72.0715 H         1 UNK         0.0837 
     74 H74       -80.8039   30.1638  -70.4379 H         1 UNK         0.0685 
     75 H75       -80.5353   28.4779  -70.0753 H         1 UNK         0.0685 
     76 H76       -80.1105   30.5487  -73.2031 H         1 UNK         0.1434 
     77 H77       -75.9487   29.6123  -73.6004 H         1 UNK         0.1329 
     78 H78       -78.1780   28.0803  -70.2797 H         1 UNK         0.1335 
     79 H79       -75.9284   27.1472  -70.8673 H         1 UNK         0.0680 
     80 H80       -75.0638   27.7725  -72.2504 H         1 UNK         0.0680 
     81 H81       -72.5488   28.5557  -69.5985 H         1 UNK         0.1032 
     82 H82       -73.0150   27.6048  -70.9820 H         1 UNK         0.1032 
     83 H83       -72.3683   30.6040  -71.0877 H         1 UNK         0.0461 
     84 H84       -70.3639   30.4867  -69.9125 H         1 UNK         0.3453 
     85 H85       -68.9915   29.6243  -70.5569 H         1 UNK         0.3453 
     86 H86       -73.2423   28.7495  -73.1752 H         1 UNK         0.2984 
     87 H87       -74.1986   29.9944  -75.0721 H         1 UNK         0.0554 
     88 H88       -73.6093   32.3316  -75.6836 H         1 UNK         0.0847 
     89 H89       -73.5460   31.2701  -77.0789 H         1 UNK         0.0847 
     90 H90       -72.0518   31.7981  -76.3018 H         1 UNK         0.0847 
     91 H91       -71.7435   29.3731  -76.4963 H         1 UNK         0.3141 
     92 H92       -71.3410   27.2955  -77.1239 H         1 UNK         0.0743 
     93 H93       -70.9396   25.8863  -74.4172 H         1 UNK         0.0784 
     94 H94       -69.8990   25.7127  -75.8306 H         1 UNK         0.0784 
     95 H95       -69.9917   27.2508  -74.9887 H         1 UNK         0.0784 
     96 H96       -73.4471   25.5856  -76.1362 H         1 UNK         0.3213 
     97 H97       -72.8826   23.1790  -78.8000 H         1 UNK         0.0855 
     98 H98       -73.5890   23.0619  -75.8202 H         1 UNK         0.0814 
     99 H99       -72.3278   22.1546  -76.6357 H         1 UNK         0.0814 
    100 H100      -74.0139   21.8476  -77.0224 H         1 UNK         0.0814 
    101 H101      -75.1285   24.4216  -77.3266 H         1 UNK         0.3105 
    102 H102      -76.2670   26.2168  -80.1352 H         1 UNK         0.0547 
    103 H103      -77.1565   23.9807  -80.8032 H         1 UNK         0.0837 
    104 H104      -77.5397   23.6159  -79.1265 H         1 UNK         0.0837 
    105 H105      -78.3805   24.9198  -79.9633 H         1 UNK         0.0837 
    106 H106      -77.5968   25.6770  -77.7009 H         1 UNK         0.3020 
    107 H107      -75.8103   27.8915  -75.5851 H         1 UNK         0.1245 
    108 H108      -78.4938   28.3820  -75.4194 H         1 UNK         0.0781 
    109 H109      -78.3829   28.3537  -77.1435 H         1 UNK         0.0781 
    110 H110      -79.0089   31.2015  -75.1754 H         1 UNK         0.0836 
    111 H111      -77.5268   31.9453  -74.6289 H         1 UNK         0.0836 
    112 H112      -77.9741   26.3073  -74.9109 H         1 UNK         0.3022 
    113 H113      -76.2121   23.2325  -74.2762 H         1 UNK         0.0747 
    114 H114      -77.4924   23.6954  -72.1410 H         1 UNK         0.0793 
    115 H115      -75.9897   24.5964  -72.2705 H         1 UNK         0.0793 
    116 H116      -77.5123   25.4103  -72.5607 H         1 UNK         0.0793 
    117 H117      -78.9834   24.1571  -74.3036 H         1 UNK         0.3047 
    118 H118      -79.7149   22.8637  -77.5191 H         1 UNK         0.0822 
    119 H119      -81.4223   21.5012  -76.3357 H         1 UNK         0.0807 
    120 H120      -80.5447   21.6711  -74.8145 H         1 UNK         0.0807 
    121 H121      -79.8352   20.7753  -76.1504 H         1 UNK         0.0807 
    122 H122      -81.3721   23.9347  -75.4459 H         1 UNK         0.2946 
    123 H123      -80.8254   27.3718  -76.1176 H         1 UNK         0.1144 
    124 H124      -83.2784   27.3546  -76.4774 H         1 UNK         0.0793 
    125 H125      -83.2619   25.6083  -76.7279 H         1 UNK         0.0793 
    126 H126      -82.4630   26.6748  -77.8751 H         1 UNK         0.0793 
    127 H127      -82.6358   26.1134  -74.3417 H         1 UNK         0.2896 
@<TRIPOS>BOND
     1    1    2 1    
     2    1   67 1    
     3    1   68 1    
     4    1   69 1    
     5    2    3 2    
     6    2    4 am   BACKBONE|DICT|INTERRES
     7    4    5 1    
     8    4   70 1    
     9    5    6 1    
    10    5   65 1    
    11    5   71 1    
    12    6    7 1    
    13    6   72 1    
    14    6   73 1    
    15    7    8 1    
    16    8    9 1    
    17    8   74 1    
    18    8   75 1    
    19    9   10 ar   
    20    9   14 ar   
    21   10   11 ar   
    22   10   76 1    
    23   11   12 ar   
    24   11   48 1    
    25   12   13 ar   
    26   12   77 1    
    27   13   14 ar   
    28   13   15 1    
    29   14   78 1    
    30   15   16 1    
    31   15   79 1    
    32   15   80 1    
    33   16   17 1    
    34   17   18 1    
    35   17   81 1    
    36   17   82 1    
    37   18   19 1    
    38   18   22 1    
    39   18   83 1    
    40   19   20 am   BACKBONE|DICT|INTERRES
    41   19   21 2    
    42   20   84 1    
    43   20   85 1    
    44   22   23 am   BACKBONE|DICT|INTERRES
    45   22   86 1    
    46   23   24 2    
    47   23   25 1    
    48   25   26 1    
    49   25   27 1    
    50   25   87 1    
    51   26   88 1    
    52   26   89 1    
    53   26   90 1    
    54   27   28 am   BACKBONE|DICT|INTERRES
    55   27   91 1    
    56   28   29 2    
    57   28   30 1    
    58   30   31 1    
    59   30   32 1    
    60   30   92 1    
    61   31   93 1    
    62   31   94 1    
    63   31   95 1    
    64   32   33 am   BACKBONE|DICT|INTERRES
    65   32   96 1    
    66   33   34 2    
    67   33   35 1    
    68   35   36 1    
    69   35   37 1    
    70   35   97 1    
    71   36   98 1    
    72   36   99 1    
    73   36  100 1    
    74   37   38 am   BACKBONE|DICT|INTERRES
    75   37  101 1    
    76   38   39 2    
    77   38   40 1    
    78   40   41 1    
    79   40   42 1    
    80   40  102 1    
    81   41  103 1    
    82   41  104 1    
    83   41  105 1    
    84   42   43 am   BACKBONE|DICT|INTERRES
    85   42  106 1    
    86   43   44 2    
    87   43   45 1    
    88   45   46 1    
    89   45   49 1    
    90   45  107 1    
    91   46   47 1    
    92   46  108 1    
    93   46  109 1    
    94   47   48 1    
    95   48  110 1    
    96   48  111 1    
    97   49   50 am   BACKBONE|DICT|INTERRES
    98   49  112 1    
    99   50   51 2    
   100   50   52 1    
   101   52   53 1    
   102   52   54 1    
   103   52  113 1    
   104   53  114 1    
   105   53  115 1    
   106   53  116 1    
   107   54   55 am   BACKBONE|DICT|INTERRES
   108   54  117 1    
   109   55   56 2    
   110   55   57 1    
   111   57   58 1    
   112   57   59 1    
   113   57  118 1    
   114   58  119 1    
   115   58  120 1    
   116   58  121 1    
   117   59   60 am   BACKBONE|DICT|INTERRES
   118   59  122 1    
   119   60   61 2    
   120   60   62 1    
   121   62   63 1    
   122   62   64 1    
   123   62  123 1    
   124   63  124 1    
   125   63  125 1    
   126   63  126 1    
   127   64   65 am   BACKBONE|DICT|INTERRES
   128   64  127 1    
   129   65   66 2    
@<TRIPOS>SUBSTRUCTURE
     1 UNK         1 GROUP             0       ****    0 ROOT    
