@<TRIPOS>MOLECULE
3R135
127   129    1
SMALL
USER_CHARGES


@<TRIPOS>ATOM
      1 CA        -79.6564   30.6394  -76.2247 C.3       0 UNK        -0.1998 
      2 C         -79.7455   29.4376  -75.2973 C.2       0 UNK         0.4909 
      3 O         -78.9126   28.5385  -75.3854 O.2       0 UNK        -0.5240 
      4 N         -80.7431   29.4211  -74.4055 N.am      1 UNK        -0.4739 
      5 CA        -80.9701   28.3527  -73.4259 C.3       1 UNK         0.0864 
      6 C6        -82.0132   28.7563  -72.3514 C.3       11 UNK        -0.0881 
      7 S7        -81.6716   30.3703  -71.5676 S.3       11 UNK        -0.2682 
      8 C8        -80.7302   29.8875  -70.0854 C.3       11 UNK         0.0289 
      9 C9        -79.3487   29.3456  -70.4278 C.ar      11 UNK        -0.0687 
     10 C10       -79.0085   28.0254  -70.1126 C.ar      11 UNK        -0.0823 
     11 C11       -77.7330   27.5276  -70.4007 C.ar      11 UNK        -0.0830 
     12 C12       -76.7965   28.3738  -71.0055 C.ar      11 UNK        -0.1021 
     13 C13       -77.1279   29.6861  -71.3440 C.ar      11 UNK        -0.0753 
     14 C14       -78.4032   30.1713  -71.0452 C.ar      11 UNK        -0.0933 
     15 C15       -76.1027   30.5673  -72.0380 C.3       11 UNK         0.0166 
     16 S16       -76.2431   30.4111  -73.8428 S.3       11 UNK        -0.2615 
     17 C17       -74.7729   31.3358  -74.3987 C.3       11 UNK        -0.0865 
     18 CA        -73.8020   30.4533  -75.2386 C.3       10 UNK         0.0862 
     19 C         -72.6706   31.2818  -75.9233 C.2       10 UNK         0.5551 
     20 N         -73.0184   32.3559  -76.6202 N.am      10 UNK        -0.7319 
     21 O         -71.4877   30.9508  -75.8731 O.2       10 UNK        -0.5018 
     22 N         -73.3152   29.2679  -74.5097 N.am      10 UNK        -0.4509 
     23 C         -72.5380   29.2575  -73.4158 C.2       10 UNK         0.4899 
     24 O         -72.1935   30.2674  -72.8008 O.2       10 UNK        -0.4839 
     25 CA        -72.0494   27.8861  -72.9196 C.3       9 UNK         0.0222 
     26 CB        -72.9621   27.3636  -71.8003 C.3       9 UNK        -0.1966 
     27 N         -72.0187   26.9047  -74.0054 N.am      9 UNK        -0.4218 
     28 C         -70.9222   26.5184  -74.6688 C.2       9 UNK         0.5020 
     29 O         -69.7764   26.8634  -74.3762 O.2       9 UNK        -0.5274 
     30 CA        -71.1528   25.6035  -75.8824 C.3       8 UNK         0.0270 
     31 CB        -71.6766   24.2217  -75.4528 C.3       8 UNK        -0.1976 
     32 N         -72.0778   26.2027  -76.8461 N.am      8 UNK        -0.4313 
     33 C         -71.8180   27.2667  -77.6168 C.2       8 UNK         0.5041 
     34 O         -70.7222   27.8268  -77.6497 O.2       8 UNK        -0.5577 
     35 CA        -72.9552   27.8166  -78.5052 C.3       7 UNK         0.0284 
     36 CB        -72.8898   27.2104  -79.9209 C.3       7 UNK        -0.1958 
     37 N         -74.3100   27.7089  -77.9370 N.am      7 UNK        -0.4454 
     38 C         -75.0126   26.6045  -77.6536 C.2       7 UNK         0.5089 
     39 O         -74.6191   25.4582  -77.8802 O.2       7 UNK        -0.5125 
     40 CA        -76.3633   26.8228  -76.9522 C.3       6 UNK         0.0408 
     41 CB        -77.5168   26.6385  -77.9509 C.3       6 UNK        -0.1791 
     42 N         -76.5631   25.9108  -75.8240 N.am      6 UNK        -0.4762 
     43 C         -75.7183   25.7000  -74.8029 C.2       6 UNK         0.5007 
     44 O         -74.6507   26.2999  -74.6587 O.2       6 UNK        -0.5032 
     45 CA        -76.1222   24.6104  -73.7909 C.3       5 UNK         0.0783 
     46 C46       -77.0203   25.1771  -72.6555 C.3       11 UNK        -0.0857 
     47 S47       -76.1261   25.2937  -71.0745 S.3       11 UNK        -0.2512 
     48 C48       -77.3849   26.0891  -70.0155 C.3       11 UNK         0.0225 
     49 N         -76.7780   23.4948  -74.4771 N.am      5 UNK        -0.4615 
     50 C         -76.1578   22.4101  -74.9579 C.2       4 UNK         0.5053 
     51 O         -74.9466   22.2160  -74.8549 O.2       4 UNK        -0.5105 
     52 CA        -77.0293   21.3395  -75.6439 C.3       4 UNK         0.0263 
     53 CB        -77.2579   20.1513  -74.6951 C.3       4 UNK        -0.1981 
     54 N         -78.3305   21.8492  -76.0855 N.am      4 UNK        -0.4224 
     55 C         -78.5279   22.5503  -77.2103 C.2       3 UNK         0.4895 
     56 O         -77.6499   22.7674  -78.0448 O.2       3 UNK        -0.5091 
     57 CA        -79.9393   23.1268  -77.4393 C.3       3 UNK         0.0250 
     58 CB        -80.7734   22.1708  -78.3072 C.3       3 UNK        -0.1996 
     59 N         -80.6883   23.4496  -76.2153 N.am      3 UNK        -0.4254 
     60 C         -80.2808   24.3090  -75.2714 C.2       2 UNK         0.5004 
     61 O         -79.1713   24.8439  -75.2741 O.2       2 UNK        -0.5226 
     62 CA        -81.2399   24.5675  -74.0980 C.3       2 UNK         0.0269 
     63 CB        -81.0451   23.5077  -73.0010 C.3       2 UNK        -0.1926 
     64 N         -81.0163   25.8977  -73.5238 N.am      2 UNK        -0.4687 
     65 C         -81.3973   27.0384  -74.1144 C.2       1 UNK         0.5165 
     66 O         -82.0954   27.0762  -75.1323 O.2       1 UNK        -0.5079 
     67 H67       -79.7874   30.3213  -77.2616 H         1 UNK         0.0900 
     68 H68       -78.6746   31.1097  -76.1298 H         1 UNK         0.0900 
     69 H69       -80.4174   31.3904  -75.9959 H         1 UNK         0.0900 
     70 H70       -81.4049   30.1827  -74.3767 H         1 UNK         0.2959 
     71 H71       -80.0136   28.1720  -72.9311 H         1 UNK         0.1079 
     72 H72       -83.0086   28.8186  -72.7960 H         1 UNK         0.0837 
     73 H73       -82.0801   27.9911  -71.5759 H         1 UNK         0.0837 
     74 H74       -80.6147   30.7628  -69.4448 H         1 UNK         0.0685 
     75 H75       -81.3085   29.1629  -69.5100 H         1 UNK         0.0685 
     76 H76       -79.7357   27.3865  -69.6300 H         1 UNK         0.1434 
     77 H77       -75.8034   28.0153  -71.2258 H         1 UNK         0.1329 
     78 H78       -78.6652   31.1887  -71.3020 H         1 UNK         0.1335 
     79 H79       -76.2412   31.6105  -71.7505 H         1 UNK         0.0680 
     80 H80       -75.0954   30.2869  -71.7253 H         1 UNK         0.0680 
     81 H81       -74.2544   31.7752  -73.5452 H         1 UNK         0.1032 
     82 H82       -75.1412   32.1786  -74.9843 H         1 UNK         0.1032 
     83 H83       -74.3770   30.0414  -76.0681 H         1 UNK         0.0461 
     84 H84       -72.2966   32.8909  -77.0778 H         1 UNK         0.3453 
     85 H85       -73.9811   32.6394  -76.7119 H         1 UNK         0.3453 
     86 H86       -73.5720   28.3769  -74.9090 H         1 UNK         0.2984 
     87 H87       -71.0488   28.0227  -72.5047 H         1 UNK         0.0554 
     88 H88       -72.5704   26.4436  -71.3668 H         1 UNK         0.0847 
     89 H89       -73.9635   27.1535  -72.1733 H         1 UNK         0.0847 
     90 H90       -73.0554   28.0911  -70.9929 H         1 UNK         0.0847 
     91 H91       -72.9265   26.5570  -74.3142 H         1 UNK         0.3141 
     92 H92       -70.1914   25.4602  -76.3804 H         1 UNK         0.0743 
     93 H93       -72.6675   24.2794  -75.0003 H         1 UNK         0.0784 
     94 H94       -71.7418   23.5430  -76.3034 H         1 UNK         0.0784 
     95 H95       -71.0101   23.7613  -74.7224 H         1 UNK         0.0784 
     96 H96       -72.9961   25.7762  -76.9426 H         1 UNK         0.3213 
     97 H97       -72.7682   28.8875  -78.6036 H         1 UNK         0.0855 
     98 H98       -71.9162   27.3951  -80.3768 H         1 UNK         0.0814 
     99 H99       -73.6425   27.6492  -80.5759 H         1 UNK         0.0814 
    100 H100      -73.0406   26.1307  -79.9118 H         1 UNK         0.0814 
    101 H101      -74.7418   28.5936  -77.7105 H         1 UNK         0.3105 
    102 H102      -76.4022   27.8387  -76.5538 H         1 UNK         0.0547 
    103 H103      -77.4317   27.3389  -78.7825 H         1 UNK         0.0837 
    104 H104      -77.5264   25.6310  -78.3692 H         1 UNK         0.0837 
    105 H105      -78.4834   26.8121  -77.4772 H         1 UNK         0.0837 
    106 H106      -77.4543   25.4224  -75.8015 H         1 UNK         0.3020 
    107 H107      -75.1905   24.2382  -73.3581 H         1 UNK         0.1245 
    108 H108      -77.8806   24.5302  -72.4807 H         1 UNK         0.0781 
    109 H109      -77.4431   26.1525  -72.9084 H         1 UNK         0.0781 
    110 H110      -77.0191   26.0897  -68.9881 H         1 UNK         0.0836 
    111 H111      -78.2822   25.4683  -70.0225 H         1 UNK         0.0836 
    112 H112      -77.7614   23.6308  -74.6818 H         1 UNK         0.3022 
    113 H113      -76.4778   20.9777  -76.5145 H         1 UNK         0.0747 
    114 H114      -77.8187   19.3547  -75.1843 H         1 UNK         0.0793 
    115 H115      -76.3085   19.7234  -74.3699 H         1 UNK         0.0793 
    116 H116      -77.8050   20.4478  -73.7992 H         1 UNK         0.0793 
    117 H117      -79.1152   21.7014  -75.4678 H         1 UNK         0.3047 
    118 H118      -79.8118   24.0610  -77.9906 H         1 UNK         0.0822 
    119 H119      -81.7308   22.6146  -78.5807 H         1 UNK         0.0807 
    120 H120      -80.9724   21.2289  -77.7944 H         1 UNK         0.0807 
    121 H121      -80.2537   21.9322  -79.2365 H         1 UNK         0.0807 
    122 H122      -81.6026   23.0288  -76.1272 H         1 UNK         0.2946 
    123 H123      -82.2674   24.5124  -74.4656 H         1 UNK         0.1144 
    124 H124      -81.2456   22.5058  -73.3829 H         1 UNK         0.0793 
    125 H125      -81.7256   23.6736  -72.1655 H         1 UNK         0.0793 
    126 H126      -80.0282   23.5079  -72.6085 H         1 UNK         0.0793 
    127 H127      -80.4315   25.9410  -72.7027 H         1 UNK         0.2896 
@<TRIPOS>BOND
     1    1    2 1    
     2    1   67 1    
     3    1   68 1    
     4    1   69 1    
     5    2    3 2    
     6    2    4 am   BACKBONE|DICT|INTERRES
     7    4    5 1    
     8    4   70 1    
     9    5    6 1    
    10    5   65 1    
    11    5   71 1    
    12    6    7 1    
    13    6   72 1    
    14    6   73 1    
    15    7    8 1    
    16    8    9 1    
    17    8   74 1    
    18    8   75 1    
    19    9   10 ar   
    20    9   14 ar   
    21   10   11 ar   
    22   10   76 1    
    23   11   12 ar   
    24   11   48 1    
    25   12   13 ar   
    26   12   77 1    
    27   13   14 ar   
    28   13   15 1    
    29   14   78 1    
    30   15   16 1    
    31   15   79 1    
    32   15   80 1    
    33   16   17 1    
    34   17   18 1    
    35   17   81 1    
    36   17   82 1    
    37   18   19 1    
    38   18   22 1    
    39   18   83 1    
    40   19   20 am   BACKBONE|DICT|INTERRES
    41   19   21 2    
    42   20   84 1    
    43   20   85 1    
    44   22   23 am   BACKBONE|DICT|INTERRES
    45   22   86 1    
    46   23   24 2    
    47   23   25 1    
    48   25   26 1    
    49   25   27 1    
    50   25   87 1    
    51   26   88 1    
    52   26   89 1    
    53   26   90 1    
    54   27   28 am   BACKBONE|DICT|INTERRES
    55   27   91 1    
    56   28   29 2    
    57   28   30 1    
    58   30   31 1    
    59   30   32 1    
    60   30   92 1    
    61   31   93 1    
    62   31   94 1    
    63   31   95 1    
    64   32   33 am   BACKBONE|DICT|INTERRES
    65   32   96 1    
    66   33   34 2    
    67   33   35 1    
    68   35   36 1    
    69   35   37 1    
    70   35   97 1    
    71   36   98 1    
    72   36   99 1    
    73   36  100 1    
    74   37   38 am   BACKBONE|DICT|INTERRES
    75   37  101 1    
    76   38   39 2    
    77   38   40 1    
    78   40   41 1    
    79   40   42 1    
    80   40  102 1    
    81   41  103 1    
    82   41  104 1    
    83   41  105 1    
    84   42   43 am   BACKBONE|DICT|INTERRES
    85   42  106 1    
    86   43   44 2    
    87   43   45 1    
    88   45   46 1    
    89   45   49 1    
    90   45  107 1    
    91   46   47 1    
    92   46  108 1    
    93   46  109 1    
    94   47   48 1    
    95   48  110 1    
    96   48  111 1    
    97   49   50 am   BACKBONE|DICT|INTERRES
    98   49  112 1    
    99   50   51 2    
   100   50   52 1    
   101   52   53 1    
   102   52   54 1    
   103   52  113 1    
   104   53  114 1    
   105   53  115 1    
   106   53  116 1    
   107   54   55 am   BACKBONE|DICT|INTERRES
   108   54  117 1    
   109   55   56 2    
   110   55   57 1    
   111   57   58 1    
   112   57   59 1    
   113   57  118 1    
   114   58  119 1    
   115   58  120 1    
   116   58  121 1    
   117   59   60 am   BACKBONE|DICT|INTERRES
   118   59  122 1    
   119   60   61 2    
   120   60   62 1    
   121   62   63 1    
   122   62   64 1    
   123   62  123 1    
   124   63  124 1    
   125   63  125 1    
   126   63  126 1    
   127   64   65 am   BACKBONE|DICT|INTERRES
   128   64  127 1    
   129   65   66 2    
@<TRIPOS>SUBSTRUCTURE
     1 UNK         1 GROUP             0       ****    0 ROOT    
