@<TRIPOS>MOLECULE
3R135
127   129    1
SMALL
USER_CHARGES


@<TRIPOS>ATOM
      1 CA        -85.5370   27.6227  -72.7905 C.3       0 UNK        -0.1998 
      2 C         -84.0830   27.6035  -73.2376 C.2       0 UNK         0.4909 
      3 O         -83.7596   28.1568  -74.2886 O.2       0 UNK        -0.5240 
      4 N         -83.2066   26.9726  -72.4448 N.am      1 UNK        -0.4739 
      5 CA        -81.7656   26.8472  -72.7083 C.3       1 UNK         0.0864 
      6 C6        -81.0018   26.3526  -71.4557 C.3       11 UNK        -0.0881 
      7 S7        -81.1144   27.5483  -70.0813 S.3       11 UNK        -0.2682 
      8 C8        -79.3622   27.7423  -69.5966 C.3       11 UNK         0.0289 
      9 C9        -78.4268   28.3062  -70.6692 C.ar      11 UNK        -0.0687 
     10 C10       -78.8858   29.0839  -71.7408 C.ar      11 UNK        -0.0823 
     11 C11       -77.9983   29.5754  -72.7037 C.ar      11 UNK        -0.0830 
     12 C12       -76.6318   29.3181  -72.5703 C.ar      11 UNK        -0.1021 
     13 C13       -76.1548   28.5670  -71.4931 C.ar      11 UNK        -0.0753 
     14 C14       -77.0554   28.0576  -70.5542 C.ar      11 UNK        -0.0933 
     15 C15       -74.6629   28.3312  -71.3356 C.3       11 UNK         0.0166 
     16 S16       -73.8664   29.8014  -70.6162 S.3       11 UNK        -0.2615 
     17 C17       -72.0974   29.3800  -70.7544 C.3       11 UNK        -0.0865 
     18 CA        -71.4413   30.0146  -72.0083 C.3       10 UNK         0.0862 
     19 C         -69.9003   29.8358  -71.9712 C.2       10 UNK         0.5551 
     20 N         -69.1523   30.9054  -71.7385 N.am      10 UNK        -0.7319 
     21 O         -69.3862   28.7270  -72.1007 O.2       10 UNK        -0.5018 
     22 N         -72.0238   29.4585  -73.2340 N.am      10 UNK        -0.4509 
     23 C         -71.8516   29.9213  -74.4770 C.2       10 UNK         0.4899 
     24 O         -71.2237   30.9457  -74.7491 O.2       10 UNK        -0.4839 
     25 CA        -72.5223   29.0963  -75.5964 C.3       9 UNK         0.0222 
     26 CB        -71.9153   29.3592  -76.9902 C.3       9 UNK        -0.1966 
     27 N         -72.5670   27.6554  -75.3070 N.am      9 UNK        -0.4218 
     28 C         -71.5189   26.8403  -75.0988 C.2       9 UNK         0.5020 
     29 O         -70.3402   27.1880  -75.1692 O.2       9 UNK        -0.5274 
     30 CA        -71.8485   25.3826  -74.7613 C.3       8 UNK         0.0270 
     31 CB        -72.4364   25.2544  -73.3437 C.3       8 UNK        -0.1976 
     32 N         -72.7832   24.8451  -75.7494 N.am      8 UNK        -0.4313 
     33 C         -72.4243   24.0516  -76.7666 C.2       8 UNK         0.5041 
     34 O         -71.2860   23.6096  -76.9304 O.2       8 UNK        -0.5577 
     35 CA        -73.5175   23.6836  -77.7795 C.3       7 UNK         0.0284 
     36 CB        -74.3619   22.5080  -77.2598 C.3       7 UNK        -0.1958 
     37 N         -74.3948   24.8045  -78.1231 N.am      7 UNK        -0.4454 
     38 C         -74.0313   25.8718  -78.8490 C.2       7 UNK         0.5089 
     39 O         -72.8855   26.0672  -79.2540 O.2       7 UNK        -0.5125 
     40 CA        -75.1333   26.8818  -79.2049 C.3       6 UNK         0.0408 
     41 CB        -75.9794   26.3583  -80.3770 C.3       6 UNK        -0.1791 
     42 N         -76.0071   27.1468  -78.0613 N.am      6 UNK        -0.4762 
     43 C         -76.0498   28.3010  -77.3800 C.2       6 UNK         0.5007 
     44 O         -75.4020   29.3007  -77.6907 O.2       6 UNK        -0.5032 
     45 CA        -76.9615   28.3678  -76.1331 C.3       5 UNK         0.0783 
     46 C46       -78.2333   29.1952  -76.4467 C.3       11 UNK        -0.0857 
     47 S47       -79.4155   29.3550  -75.0655 S.3       11 UNK        -0.2512 
     48 C48       -78.5253   30.4006  -73.8696 C.3       11 UNK         0.0225 
     49 N         -77.2601   27.0539  -75.5484 N.am      5 UNK        -0.4615 
     50 C         -76.3380   26.2328  -75.0287 C.2       4 UNK         0.5053 
     51 O         -75.1318   26.4860  -75.0043 O.2       4 UNK        -0.5105 
     52 CA        -76.8220   24.8761  -74.4956 C.3       4 UNK         0.0263 
     53 CB        -77.2957   25.0313  -73.0437 C.3       4 UNK        -0.1981 
     54 N         -77.8742   24.2268  -75.2897 N.am      4 UNK        -0.4224 
     55 C         -77.8736   24.0116  -76.6132 C.2       3 UNK         0.4895 
     56 O         -77.0156   24.4537  -77.3762 O.2       3 UNK        -0.5091 
     57 CA        -79.0137   23.1649  -77.2079 C.3       3 UNK         0.0250 
     58 CB        -78.7154   21.6598  -77.0648 C.3       3 UNK        -0.1996 
     59 N         -80.3550   23.5096  -76.7172 N.am      3 UNK        -0.4254 
     60 C         -80.8588   23.3727  -75.4833 C.2       2 UNK         0.5004 
     61 O         -80.2621   22.8499  -74.5386 O.2       2 UNK        -0.5226 
     62 CA        -82.2562   23.9747  -75.2574 C.3       2 UNK         0.0269 
     63 CB        -83.2935   22.8638  -75.0267 C.3       2 UNK        -0.1926 
     64 N         -82.2997   24.9172  -74.1340 N.am      2 UNK        -0.4687 
     65 C         -81.4625   25.9473  -73.9237 C.2       1 UNK         0.5165 
     66 O         -80.5012   26.2151  -74.6459 O.2       1 UNK        -0.5079 
     67 H67       -85.6796   27.1040  -71.8426 H         1 UNK         0.0900 
     68 H68       -86.1659   27.1409  -73.5387 H         1 UNK         0.0900 
     69 H69       -85.8782   28.6504  -72.6688 H         1 UNK         0.0900 
     70 H70       -83.5270   26.5639  -71.5782 H         1 UNK         0.2959 
     71 H71       -81.3930   27.8397  -72.9699 H         1 UNK         0.1079 
     72 H72       -79.9509   26.1828  -71.6896 H         1 UNK         0.0837 
     73 H73       -81.3921   25.3914  -71.1162 H         1 UNK         0.0837 
     74 H74       -79.3193   28.3991  -68.7270 H         1 UNK         0.0685 
     75 H75       -78.9959   26.7691  -69.2656 H         1 UNK         0.0685 
     76 H76       -79.9372   29.3116  -71.8375 H         1 UNK         0.1434 
     77 H77       -75.9302   29.7200  -73.2875 H         1 UNK         0.1329 
     78 H78       -76.6841   27.4782  -69.7198 H         1 UNK         0.1335 
     79 H79       -74.2322   28.1028  -72.3104 H         1 UNK         0.0680 
     80 H80       -74.4722   27.4650  -70.7000 H         1 UNK         0.0680 
     81 H81       -71.6092   29.7453  -69.8486 H         1 UNK         0.1032 
     82 H82       -71.9677   28.2958  -70.7465 H         1 UNK         0.1032 
     83 H83       -71.6625   31.0841  -72.0010 H         1 UNK         0.0461 
     84 H84       -68.1504   30.8033  -71.6933 H         1 UNK         0.3453 
     85 H85       -69.5685   31.8168  -71.6251 H         1 UNK         0.3453 
     86 H86       -72.5266   28.5933  -73.1245 H         1 UNK         0.2984 
     87 H87       -73.5610   29.4270  -75.6245 H         1 UNK         0.0554 
     88 H88       -72.4244   28.7764  -77.7583 H         1 UNK         0.0847 
     89 H89       -70.8547   29.1088  -77.0252 H         1 UNK         0.0847 
     90 H90       -72.0119   30.4096  -77.2671 H         1 UNK         0.0847 
     91 H91       -73.5013   27.2593  -75.2109 H         1 UNK         0.3141 
     92 H92       -70.9128   24.8193  -74.7770 H         1 UNK         0.0743 
     93 H93       -73.3771   25.7918  -73.2291 H         1 UNK         0.0784 
     94 H94       -72.6197   24.2105  -73.0892 H         1 UNK         0.0784 
     95 H95       -71.7434   25.6508  -72.6002 H         1 UNK         0.0784 
     96 H96       -73.7339   25.1956  -75.7118 H         1 UNK         0.3213 
     97 H97       -73.0199   23.3606  -78.6967 H         1 UNK         0.0855 
     98 H98       -73.7332   21.6447  -77.0375 H         1 UNK         0.0814 
     99 H99       -75.0975   22.1908  -77.9991 H         1 UNK         0.0814 
    100 H100      -74.8969   22.7654  -76.3452 H         1 UNK         0.0814 
    101 H101      -75.3739   24.7061  -77.8552 H         1 UNK         0.3105 
    102 H102      -74.6417   27.7999  -79.5333 H         1 UNK         0.0547 
    103 H103      -75.3541   26.1420  -81.2443 H         1 UNK         0.0837 
    104 H104      -76.5090   25.4403  -80.1184 H         1 UNK         0.0837 
    105 H105      -76.7204   27.0947  -80.6880 H         1 UNK         0.0837 
    106 H106      -76.5549   26.3630  -77.7201 H         1 UNK         0.3020 
    107 H107      -76.3862   28.9158  -75.3874 H         1 UNK         0.1245 
    108 H108      -78.7753   28.7428  -77.2796 H         1 UNK         0.0781 
    109 H109      -77.9638   30.2006  -76.7767 H         1 UNK         0.0781 
    110 H110      -79.2115   31.1584  -73.4887 H         1 UNK         0.0836 
    111 H111      -77.7198   30.9447  -74.3650 H         1 UNK         0.0836 
    112 H112      -78.2360   26.7879  -75.5021 H         1 UNK         0.3022 
    113 H113      -75.9638   24.2020  -74.5015 H         1 UNK         0.0747 
    114 H114      -76.5033   25.4398  -72.4145 H         1 UNK         0.0793 
    115 H115      -78.1432   25.7130  -72.9787 H         1 UNK         0.0793 
    116 H116      -77.5945   24.0756  -72.6130 H         1 UNK         0.0793 
    117 H117      -78.6519   23.8247  -74.7720 H         1 UNK         0.3047 
    118 H118      -79.0318   23.3877  -78.2762 H         1 UNK         0.0822 
    119 H119      -78.6546   21.3493  -76.0215 H         1 UNK         0.0807 
    120 H120      -77.7617   21.4081  -77.5310 H         1 UNK         0.0807 
    121 H121      -79.4821   21.0560  -77.5501 H         1 UNK         0.0807 
    122 H122      -80.9322   23.9837  -77.3985 H         1 UNK         0.2946 
    123 H123      -82.5468   24.5338  -76.1493 H         1 UNK         0.1144 
    124 H124      -83.2989   22.1557  -75.8566 H         1 UNK         0.0793 
    125 H125      -83.0818   22.2986  -74.1180 H         1 UNK         0.0793 
    126 H126      -84.3017   23.2702  -74.9434 H         1 UNK         0.0793 
    127 H127      -83.0525   24.7903  -73.4738 H         1 UNK         0.2896 
@<TRIPOS>BOND
     1    1    2 1    
     2    1   67 1    
     3    1   68 1    
     4    1   69 1    
     5    2    3 2    
     6    2    4 am   BACKBONE|DICT|INTERRES
     7    4    5 1    
     8    4   70 1    
     9    5    6 1    
    10    5   65 1    
    11    5   71 1    
    12    6    7 1    
    13    6   72 1    
    14    6   73 1    
    15    7    8 1    
    16    8    9 1    
    17    8   74 1    
    18    8   75 1    
    19    9   10 ar   
    20    9   14 ar   
    21   10   11 ar   
    22   10   76 1    
    23   11   12 ar   
    24   11   48 1    
    25   12   13 ar   
    26   12   77 1    
    27   13   14 ar   
    28   13   15 1    
    29   14   78 1    
    30   15   16 1    
    31   15   79 1    
    32   15   80 1    
    33   16   17 1    
    34   17   18 1    
    35   17   81 1    
    36   17   82 1    
    37   18   19 1    
    38   18   22 1    
    39   18   83 1    
    40   19   20 am   BACKBONE|DICT|INTERRES
    41   19   21 2    
    42   20   84 1    
    43   20   85 1    
    44   22   23 am   BACKBONE|DICT|INTERRES
    45   22   86 1    
    46   23   24 2    
    47   23   25 1    
    48   25   26 1    
    49   25   27 1    
    50   25   87 1    
    51   26   88 1    
    52   26   89 1    
    53   26   90 1    
    54   27   28 am   BACKBONE|DICT|INTERRES
    55   27   91 1    
    56   28   29 2    
    57   28   30 1    
    58   30   31 1    
    59   30   32 1    
    60   30   92 1    
    61   31   93 1    
    62   31   94 1    
    63   31   95 1    
    64   32   33 am   BACKBONE|DICT|INTERRES
    65   32   96 1    
    66   33   34 2    
    67   33   35 1    
    68   35   36 1    
    69   35   37 1    
    70   35   97 1    
    71   36   98 1    
    72   36   99 1    
    73   36  100 1    
    74   37   38 am   BACKBONE|DICT|INTERRES
    75   37  101 1    
    76   38   39 2    
    77   38   40 1    
    78   40   41 1    
    79   40   42 1    
    80   40  102 1    
    81   41  103 1    
    82   41  104 1    
    83   41  105 1    
    84   42   43 am   BACKBONE|DICT|INTERRES
    85   42  106 1    
    86   43   44 2    
    87   43   45 1    
    88   45   46 1    
    89   45   49 1    
    90   45  107 1    
    91   46   47 1    
    92   46  108 1    
    93   46  109 1    
    94   47   48 1    
    95   48  110 1    
    96   48  111 1    
    97   49   50 am   BACKBONE|DICT|INTERRES
    98   49  112 1    
    99   50   51 2    
   100   50   52 1    
   101   52   53 1    
   102   52   54 1    
   103   52  113 1    
   104   53  114 1    
   105   53  115 1    
   106   53  116 1    
   107   54   55 am   BACKBONE|DICT|INTERRES
   108   54  117 1    
   109   55   56 2    
   110   55   57 1    
   111   57   58 1    
   112   57   59 1    
   113   57  118 1    
   114   58  119 1    
   115   58  120 1    
   116   58  121 1    
   117   59   60 am   BACKBONE|DICT|INTERRES
   118   59  122 1    
   119   60   61 2    
   120   60   62 1    
   121   62   63 1    
   122   62   64 1    
   123   62  123 1    
   124   63  124 1    
   125   63  125 1    
   126   63  126 1    
   127   64   65 am   BACKBONE|DICT|INTERRES
   128   64  127 1    
   129   65   66 2    
@<TRIPOS>SUBSTRUCTURE
     1 UNK         1 GROUP             0       ****    0 ROOT    
