@<TRIPOS>MOLECULE
3R135
127   129    1
SMALL
USER_CHARGES


@<TRIPOS>ATOM
      1 CA        -82.5668   27.4252  -70.5062 C.3       0 UNK        -0.1998 
      2 C         -82.0576   27.1871  -71.9190 C.2       0 UNK         0.4909 
      3 O         -81.1323   26.3986  -72.1047 O.2       0 UNK        -0.5240 
      4 N         -82.6643   27.8526  -72.9117 N.am      1 UNK        -0.4739 
      5 CA        -82.3471   27.8594  -74.3531 C.3       1 UNK         0.0864 
      6 C6        -80.9189   28.3632  -74.6968 C.3       11 UNK        -0.0881 
      7 S7        -80.5235   29.9983  -73.9903 S.3       11 UNK        -0.2682 
      8 C8        -78.7314   30.1062  -74.3453 C.3       11 UNK         0.0289 
      9 C9        -77.8014   29.4203  -73.3387 C.ar      11 UNK        -0.0687 
     10 C10       -78.2521   28.4711  -72.4118 C.ar      11 UNK        -0.0823 
     11 C11       -77.3702   27.8691  -71.5118 C.ar      11 UNK        -0.0830 
     12 C12       -76.0227   28.2343  -71.5217 C.ar      11 UNK        -0.1021 
     13 C13       -75.5513   29.1751  -72.4401 C.ar      11 UNK        -0.0753 
     14 C14       -76.4417   29.7545  -73.3503 C.ar      11 UNK        -0.0933 
     15 C15       -74.0785   29.5530  -72.4506 C.3       11 UNK         0.0166 
     16 S16       -73.8053   31.1821  -71.6965 S.3       11 UNK        -0.2615 
     17 C17       -72.0220   31.1217  -71.3132 C.3       11 UNK        -0.0865 
     18 CA        -71.1437   31.7639  -72.4204 C.3       10 UNK         0.0862 
     19 C         -69.7656   32.2198  -71.8518 C.2       10 UNK         0.5551 
     20 N         -68.6390   31.6987  -72.3239 N.am      10 UNK        -0.7319 
     21 O         -69.7190   33.0732  -70.9692 O.2       10 UNK        -0.5018 
     22 N         -71.0400   30.8972  -73.6104 N.am      10 UNK        -0.4509 
     23 C         -70.8039   31.3470  -74.8506 C.2       10 UNK         0.4899 
     24 O         -70.7780   32.5426  -75.1456 O.2       10 UNK        -0.4839 
     25 CA        -70.5039   30.3111  -75.9517 C.3       9 UNK         0.0222 
     26 CB        -69.0432   30.4390  -76.4192 C.3       9 UNK        -0.1966 
     27 N         -70.7492   28.9188  -75.5586 N.am      9 UNK        -0.4218 
     28 C         -71.9421   28.3146  -75.6176 C.2       9 UNK         0.5020 
     29 O         -72.9859   28.8900  -75.9310 O.2       9 UNK        -0.5274 
     30 CA        -71.9665   26.8235  -75.2395 C.3       8 UNK         0.0270 
     31 CB        -72.2095   26.6386  -73.7334 C.3       8 UNK        -0.1976 
     32 N         -73.0026   26.1095  -75.9876 N.am      8 UNK        -0.4313 
     33 C         -72.8751   25.7288  -77.2680 C.2       8 UNK         0.5041 
     34 O         -71.8316   25.8556  -77.9116 O.2       8 UNK        -0.5577 
     35 CA        -74.0954   25.0888  -77.9602 C.3       7 UNK         0.0284 
     36 CB        -73.9613   23.5572  -77.9754 C.3       7 UNK        -0.1958 
     37 N         -75.3746   25.4454  -77.3479 N.am      7 UNK        -0.4454 
     38 C         -75.9142   26.6714  -77.3333 C.2       7 UNK         0.5089 
     39 O         -75.4561   27.6263  -77.9604 O.2       7 UNK        -0.5125 
     40 CA        -77.1796   26.8719  -76.4767 C.3       6 UNK         0.0408 
     41 CB        -78.4134   26.9550  -77.3881 C.3       6 UNK        -0.1791 
     42 N         -77.4085   25.8349  -75.4627 N.am      6 UNK        -0.4762 
     43 C         -76.5835   25.5144  -74.4527 C.2       6 UNK         0.5007 
     44 O         -75.4837   26.0375  -74.2778 O.2       6 UNK        -0.5032 
     45 CA        -77.0231   24.3447  -73.5538 C.3       5 UNK         0.0783 
     46 C46       -78.0556   24.7711  -72.4761 C.3       11 UNK        -0.0857 
     47 S47       -77.2511   25.1628  -70.8853 S.3       11 UNK        -0.2512 
     48 C48       -77.8775   26.8333  -70.5197 C.3       11 UNK         0.0225 
     49 N         -77.5228   23.2444  -74.3816 N.am      5 UNK        -0.4615 
     50 C         -76.7513   22.2850  -74.9100 C.2       4 UNK         0.5053 
     51 O         -75.5385   22.2010  -74.7189 O.2       4 UNK        -0.5105 
     52 CA        -77.4391   21.2363  -75.8028 C.3       4 UNK         0.0263 
     53 CB        -77.8384   20.0060  -74.9724 C.3       4 UNK        -0.1981 
     54 N         -78.6188   21.7494  -76.5024 N.am      4 UNK        -0.4224 
     55 C         -78.5810   22.6537  -77.4908 C.2       3 UNK         0.4895 
     56 O         -77.5416   23.1300  -77.9462 O.2       3 UNK        -0.5091 
     57 CA        -79.9359   23.1340  -78.0414 C.3       3 UNK         0.0250 
     58 CB        -80.4044   22.2175  -79.1830 C.3       3 UNK        -0.1996 
     59 N         -81.0046   23.2521  -77.0387 N.am      3 UNK        -0.4254 
     60 C         -80.9369   23.9885  -75.9209 C.2       2 UNK         0.5004 
     61 O         -79.9143   24.5617  -75.5370 O.2       2 UNK        -0.5226 
     62 CA        -82.2068   24.0720  -75.0613 C.3       2 UNK         0.0269 
     63 CB        -82.1742   23.0028  -73.9578 C.3       2 UNK        -0.1926 
     64 N         -82.2927   25.3921  -74.4392 N.am      2 UNK        -0.4687 
     65 C         -82.6120   26.5217  -75.0806 C.2       1 UNK         0.5165 
     66 O         -83.0812   26.5403  -76.2198 O.2       1 UNK        -0.5079 
     67 H67       -83.3891   28.1400  -70.4827 H         1 UNK         0.0900 
     68 H68       -82.9167   26.4892  -70.0717 H         1 UNK         0.0900 
     69 H69       -81.7628   27.8119  -69.8807 H         1 UNK         0.0900 
     70 H70       -83.4357   28.4572  -72.6653 H         1 UNK         0.2959 
     71 H71       -83.0492   28.5724  -74.7890 H         1 UNK         0.1079 
     72 H72       -80.8164   28.4581  -75.7790 H         1 UNK         0.0837 
     73 H73       -80.1674   27.6352  -74.3863 H         1 UNK         0.0837 
     74 H74       -78.5381   29.7064  -75.3414 H         1 UNK         0.0685 
     75 H75       -78.4746   31.1657  -74.3875 H         1 UNK         0.0685 
     76 H76       -79.2924   28.1905  -72.3775 H         1 UNK         0.1434 
     77 H77       -75.3401   27.7738  -70.8206 H         1 UNK         0.1329 
     78 H78       -76.0718   30.4795  -74.0626 H         1 UNK         0.1335 
     79 H79       -73.7096   29.5676  -73.4754 H         1 UNK         0.0680 
     80 H80       -73.4963   28.8024  -71.9150 H         1 UNK         0.0680 
     81 H81       -71.9052   31.6581  -70.3692 H         1 UNK         0.1032 
     82 H82       -71.7049   30.0988  -71.1047 H         1 UNK         0.1032 
     83 H83       -71.6379   32.6893  -72.7235 H         1 UNK         0.0461 
     84 H84       -67.7569   32.0093  -71.9478 H         1 UNK         0.3453 
     85 H85       -68.6607   31.0018  -73.0496 H         1 UNK         0.3453 
     86 H86       -71.0360   29.9025  -73.4480 H         1 UNK         0.2984 
     87 H87       -71.1463   30.5539  -76.8010 H         1 UNK         0.0554 
     88 H88       -68.8277   31.4520  -76.7623 H         1 UNK         0.0847 
     89 H89       -68.8333   29.7691  -77.2533 H         1 UNK         0.0847 
     90 H90       -68.3381   30.2108  -75.6191 H         1 UNK         0.0847 
     91 H91       -69.9418   28.3769  -75.2830 H         1 UNK         0.3141 
     92 H92       -70.9962   26.3851  -75.4836 H         1 UNK         0.0743 
     93 H93       -72.1597   25.5864  -73.4528 H         1 UNK         0.0784 
     94 H94       -73.1893   27.0115  -73.4375 H         1 UNK         0.0784 
     95 H95       -71.4618   27.1678  -73.1415 H         1 UNK         0.0784 
     96 H96       -73.9096   26.0325  -75.5356 H         1 UNK         0.3213 
     97 H97       -74.1088   25.4441  -78.9927 H         1 UNK         0.0855 
     98 H98       -73.9653   23.1422  -76.9665 H         1 UNK         0.0814 
     99 H99       -73.0285   23.2511  -78.4511 H         1 UNK         0.0814 
    100 H100      -74.7754   23.0925  -78.5321 H         1 UNK         0.0814 
    101 H101      -75.8692   24.7111  -76.8604 H         1 UNK         0.3105 
    102 H102      -77.0698   27.8196  -75.9470 H         1 UNK         0.0547 
    103 H103      -78.3519   27.8193  -78.0505 H         1 UNK         0.0837 
    104 H104      -78.5022   26.0689  -78.0164 H         1 UNK         0.0837 
    105 H105      -79.3337   27.0459  -76.8151 H         1 UNK         0.0837 
    106 H106      -78.2979   25.3400  -75.5257 H         1 UNK         0.3020 
    107 H107      -76.1236   23.9909  -73.0435 H         1 UNK         0.1245 
    108 H108      -78.7522   23.9564  -72.2718 H         1 UNK         0.0781 
    109 H109      -78.6801   25.6001  -72.8137 H         1 UNK         0.0781 
    110 H110      -77.5593   27.1164  -69.5155 H         1 UNK         0.0836 
    111 H111      -78.9680   26.8097  -70.4969 H         1 UNK         0.0836 
    112 H112      -78.4970   23.2988  -74.6527 H         1 UNK         0.3022 
    113 H113      -76.7124   20.9200  -76.5546 H         1 UNK         0.0747 
    114 H114      -78.2532   19.2189  -75.6024 H         1 UNK         0.0793 
    115 H115      -76.9727   19.5845  -74.4591 H         1 UNK         0.0793 
    116 H116      -78.5792   20.2543  -74.2111 H         1 UNK         0.0793 
    117 H117      -79.5195   21.4130  -76.1946 H         1 UNK         0.3047 
    118 H118      -79.7775   24.1307  -78.4564 H         1 UNK         0.0822 
    119 H119      -81.2988   22.6103  -79.6670 H         1 UNK         0.0807 
    120 H120      -80.6280   21.2106  -78.8283 H         1 UNK         0.0807 
    121 H121      -79.6362   22.1287  -79.9528 H         1 UNK         0.0807 
    122 H122      -81.8771   22.7953  -77.2634 H         1 UNK         0.2946 
    123 H123      -83.0852   23.9168  -75.6918 H         1 UNK         0.1144 
    124 H124      -83.0696   23.0480  -73.3375 H         1 UNK         0.0793 
    125 H125      -81.3092   23.1248  -73.3039 H         1 UNK         0.0793 
    126 H126      -82.1253   21.9996  -74.3831 H         1 UNK         0.0793 
    127 H127      -81.8439   25.5025  -73.5323 H         1 UNK         0.2896 
@<TRIPOS>BOND
     1    1    2 1    
     2    1   67 1    
     3    1   68 1    
     4    1   69 1    
     5    2    3 2    
     6    2    4 am   BACKBONE|DICT|INTERRES
     7    4    5 1    
     8    4   70 1    
     9    5    6 1    
    10    5   65 1    
    11    5   71 1    
    12    6    7 1    
    13    6   72 1    
    14    6   73 1    
    15    7    8 1    
    16    8    9 1    
    17    8   74 1    
    18    8   75 1    
    19    9   10 ar   
    20    9   14 ar   
    21   10   11 ar   
    22   10   76 1    
    23   11   12 ar   
    24   11   48 1    
    25   12   13 ar   
    26   12   77 1    
    27   13   14 ar   
    28   13   15 1    
    29   14   78 1    
    30   15   16 1    
    31   15   79 1    
    32   15   80 1    
    33   16   17 1    
    34   17   18 1    
    35   17   81 1    
    36   17   82 1    
    37   18   19 1    
    38   18   22 1    
    39   18   83 1    
    40   19   20 am   BACKBONE|DICT|INTERRES
    41   19   21 2    
    42   20   84 1    
    43   20   85 1    
    44   22   23 am   BACKBONE|DICT|INTERRES
    45   22   86 1    
    46   23   24 2    
    47   23   25 1    
    48   25   26 1    
    49   25   27 1    
    50   25   87 1    
    51   26   88 1    
    52   26   89 1    
    53   26   90 1    
    54   27   28 am   BACKBONE|DICT|INTERRES
    55   27   91 1    
    56   28   29 2    
    57   28   30 1    
    58   30   31 1    
    59   30   32 1    
    60   30   92 1    
    61   31   93 1    
    62   31   94 1    
    63   31   95 1    
    64   32   33 am   BACKBONE|DICT|INTERRES
    65   32   96 1    
    66   33   34 2    
    67   33   35 1    
    68   35   36 1    
    69   35   37 1    
    70   35   97 1    
    71   36   98 1    
    72   36   99 1    
    73   36  100 1    
    74   37   38 am   BACKBONE|DICT|INTERRES
    75   37  101 1    
    76   38   39 2    
    77   38   40 1    
    78   40   41 1    
    79   40   42 1    
    80   40  102 1    
    81   41  103 1    
    82   41  104 1    
    83   41  105 1    
    84   42   43 am   BACKBONE|DICT|INTERRES
    85   42  106 1    
    86   43   44 2    
    87   43   45 1    
    88   45   46 1    
    89   45   49 1    
    90   45  107 1    
    91   46   47 1    
    92   46  108 1    
    93   46  109 1    
    94   47   48 1    
    95   48  110 1    
    96   48  111 1    
    97   49   50 am   BACKBONE|DICT|INTERRES
    98   49  112 1    
    99   50   51 2    
   100   50   52 1    
   101   52   53 1    
   102   52   54 1    
   103   52  113 1    
   104   53  114 1    
   105   53  115 1    
   106   53  116 1    
   107   54   55 am   BACKBONE|DICT|INTERRES
   108   54  117 1    
   109   55   56 2    
   110   55   57 1    
   111   57   58 1    
   112   57   59 1    
   113   57  118 1    
   114   58  119 1    
   115   58  120 1    
   116   58  121 1    
   117   59   60 am   BACKBONE|DICT|INTERRES
   118   59  122 1    
   119   60   61 2    
   120   60   62 1    
   121   62   63 1    
   122   62   64 1    
   123   62  123 1    
   124   63  124 1    
   125   63  125 1    
   126   63  126 1    
   127   64   65 am   BACKBONE|DICT|INTERRES
   128   64  127 1    
   129   65   66 2    
@<TRIPOS>SUBSTRUCTURE
     1 UNK         1 GROUP             0       ****    0 ROOT    
