@<TRIPOS>MOLECULE
3R135
127   129    1
SMALL
USER_CHARGES


@<TRIPOS>ATOM
      1 CA        -84.3831   26.4193  -71.1930 C.3       0 UNK        -0.1998 
      2 C         -83.0735   27.2022  -71.1664 C.2       0 UNK         0.4909 
      3 O         -82.4619   27.3243  -70.1073 O.2       0 UNK        -0.5240 
      4 N         -82.5974   27.7533  -72.2916 N.am      1 UNK        -0.4739 
      5 CA        -83.1623   27.6624  -73.6459 C.3       1 UNK         0.0864 
      6 C6        -82.6652   28.8315  -74.5380 C.3       11 UNK        -0.0881 
      7 S7        -80.8596   28.8345  -74.8243 S.3       11 UNK        -0.2682 
      8 C8        -80.2745   30.0102  -73.5667 C.3       11 UNK         0.0289 
      9 C9        -78.8915   29.6095  -73.0825 C.ar      11 UNK        -0.0687 
     10 C10       -78.7539   28.6829  -72.0449 C.ar      11 UNK        -0.0823 
     11 C11       -77.4868   28.2821  -71.6128 C.ar      11 UNK        -0.0830 
     12 C12       -76.3512   28.8241  -72.2227 C.ar      11 UNK        -0.1021 
     13 C13       -76.4761   29.7507  -73.2624 C.ar      11 UNK        -0.0753 
     14 C14       -77.7496   30.1436  -73.6847 C.ar      11 UNK        -0.0933 
     15 C15       -75.2427   30.2923  -73.9672 C.3       11 UNK         0.0166 
     16 S16       -74.4609   31.6464  -73.0353 S.3       11 UNK        -0.2615 
     17 C17       -73.1489   30.7616  -72.1219 C.3       11 UNK        -0.0865 
     18 CA        -71.7755   30.8564  -72.8356 C.3       10 UNK         0.0862 
     19 C         -70.6571   30.2214  -71.9694 C.2       10 UNK         0.5551 
     20 N         -69.8399   31.0329  -71.3128 N.am      10 UNK        -0.7319 
     21 O         -70.5581   29.0018  -71.8524 O.2       10 UNK        -0.5018 
     22 N         -71.8270   30.2431  -74.1677 N.am      10 UNK        -0.4509 
     23 C         -70.9770   30.4914  -75.1691 C.2       10 UNK         0.4899 
     24 O         -70.0544   31.3057  -75.1032 O.2       10 UNK        -0.4839 
     25 CA        -71.2288   29.6985  -76.4669 C.3       9 UNK         0.0222 
     26 CB        -70.0831   29.8300  -77.4934 C.3       9 UNK        -0.1966 
     27 N         -71.5569   28.2890  -76.2153 N.am      9 UNK        -0.4218 
     28 C         -70.7719   27.3661  -75.6307 C.2       9 UNK         0.5020 
     29 O         -69.6255   27.5879  -75.2385 O.2       9 UNK        -0.5274 
     30 CA        -71.3504   25.9498  -75.4404 C.3       8 UNK         0.0270 
     31 CB        -71.6484   25.6870  -73.9547 C.3       8 UNK        -0.1976 
     32 N         -72.5570   25.7041  -76.2369 N.am      8 UNK        -0.4313 
     33 C         -72.5490   25.5103  -77.5652 C.2       8 UNK         0.5041 
     34 O         -71.5137   25.4359  -78.2287 O.2       8 UNK        -0.5577 
     35 CA        -73.9001   25.3973  -78.2987 C.3       7 UNK         0.0284 
     36 CB        -74.1615   23.9380  -78.7065 C.3       7 UNK        -0.1958 
     37 N         -75.0591   25.9033  -77.5568 N.am      7 UNK        -0.4454 
     38 C         -75.2321   27.1613  -77.1262 C.2       7 UNK         0.5089 
     39 O         -74.4157   28.0671  -77.3031 O.2       7 UNK        -0.5125 
     40 CA        -76.4923   27.4262  -76.2818 C.3       6 UNK         0.0408 
     41 CB        -77.7180   27.6489  -77.1786 C.3       6 UNK        -0.1791 
     42 N         -76.7701   26.3600  -75.3119 N.am      6 UNK        -0.4762 
     43 C         -75.9139   25.9546  -74.3596 C.2       6 UNK         0.5007 
     44 O         -74.8001   26.4511  -74.1915 O.2       6 UNK        -0.5032 
     45 CA        -76.3328   24.7396  -73.5121 C.3       5 UNK         0.0783 
     46 C46       -77.2833   25.1138  -72.3483 C.3       11 UNK        -0.0857 
     47 S47       -76.3635   25.8071  -70.9321 S.3       11 UNK        -0.2512 
     48 C48       -77.3562   27.2686  -70.4822 C.3       11 UNK         0.0225 
     49 N         -76.8975   23.6996  -74.3729 N.am      5 UNK        -0.4615 
     50 C         -76.1602   22.8468  -75.0986 C.2       4 UNK         0.5053 
     51 O         -74.9316   22.7939  -75.0494 O.2       4 UNK        -0.5105 
     52 CA        -76.9100   21.8960  -76.0495 C.3       4 UNK         0.0263 
     53 CB        -77.1855   20.5523  -75.3561 C.3       4 UNK        -0.1981 
     54 N         -78.1702   22.4484  -76.5518 N.am      4 UNK        -0.4224 
     55 C         -78.2657   23.5100  -77.3649 C.2       3 UNK         0.4895 
     56 O         -77.2960   24.1151  -77.8184 O.2       3 UNK        -0.5091 
     57 CA        -79.6834   24.0159  -77.6802 C.3       3 UNK         0.0250 
     58 CB        -80.2522   23.2924  -78.9110 C.3       3 UNK        -0.1996 
     59 N         -80.6196   23.8900  -76.5567 N.am      3 UNK        -0.4254 
     60 C         -80.4568   24.4698  -75.3595 C.2       2 UNK         0.5004 
     61 O         -79.4681   25.1390  -75.0470 O.2       2 UNK        -0.5226 
     62 CA        -81.5509   24.2179  -74.3149 C.3       2 UNK         0.0269 
     63 CB        -81.0185   23.3260  -73.1811 C.3       2 UNK        -0.1926 
     64 N         -81.9929   25.4919  -73.7560 N.am      2 UNK        -0.4687 
     65 C         -82.9161   26.2884  -74.3129 C.2       1 UNK         0.5165 
     66 O         -83.5714   25.9748  -75.3078 O.2       1 UNK        -0.5079 
     67 H67       -84.2997   25.5342  -71.8223 H         1 UNK         0.0900 
     68 H68       -85.2023   27.0383  -71.5571 H         1 UNK         0.0900 
     69 H69       -84.6460   26.0854  -70.1894 H         1 UNK         0.0900 
     70 H70       -81.7323   28.2686  -72.2392 H         1 UNK         0.2959 
     71 H71       -84.2458   27.7694  -73.5688 H         1 UNK         0.1079 
     72 H72       -83.1584   28.7947  -75.5114 H         1 UNK         0.0837 
     73 H73       -82.9644   29.7864  -74.1028 H         1 UNK         0.0837 
     74 H74       -80.2588   31.0146  -73.9926 H         1 UNK         0.0685 
     75 H75       -80.9625   30.0472  -72.7214 H         1 UNK         0.0685 
     76 H76       -79.6351   28.2650  -71.5789 H         1 UNK         0.1434 
     77 H77       -75.3712   28.5012  -71.9023 H         1 UNK         0.1329 
     78 H78       -77.8537   30.8502  -74.4967 H         1 UNK         0.1335 
     79 H79       -74.5357   29.4807  -74.1424 H         1 UNK         0.0680 
     80 H80       -75.5115   30.6684  -74.9556 H         1 UNK         0.0680 
     81 H81       -73.4324   29.7205  -71.9626 H         1 UNK         0.1032 
     82 H82       -73.0870   31.2085  -71.1278 H         1 UNK         0.1032 
     83 H83       -71.5453   31.9161  -72.9677 H         1 UNK         0.0461 
     84 H84       -69.9205   32.0344  -71.3981 H         1 UNK         0.3453 
     85 H85       -69.1181   30.6365  -70.7313 H         1 UNK         0.3453 
     86 H86       -72.5209   29.5241  -74.2977 H         1 UNK         0.2984 
     87 H87       -72.1207   30.1357  -76.9183 H         1 UNK         0.0554 
     88 H88       -70.2998   29.2706  -78.4034 H         1 UNK         0.0847 
     89 H89       -69.1353   29.4678  -77.0944 H         1 UNK         0.0847 
     90 H90       -69.9354   30.8715  -77.7816 H         1 UNK         0.0847 
     91 H91       -72.4862   28.0056  -76.5112 H         1 UNK         0.3141 
     92 H92       -70.5849   25.2388  -75.7584 H         1 UNK         0.0743 
     93 H93       -72.3051   26.4476  -73.5318 H         1 UNK         0.0784 
     94 H94       -72.1156   24.7135  -73.8037 H         1 UNK         0.0784 
     95 H95       -70.7285   25.7014  -73.3686 H         1 UNK         0.0784 
     96 H96       -73.4443   25.7719  -75.7504 H         1 UNK         0.3213 
     97 H97       -73.8152   25.9952  -79.2084 H         1 UNK         0.0855 
     98 H98       -74.3111   23.2989  -77.8356 H         1 UNK         0.0814 
     99 H99       -73.3219   23.5300  -79.2712 H         1 UNK         0.0814 
    100 H100      -75.0443   23.8546  -79.3404 H         1 UNK         0.0814 
    101 H101      -75.8195   25.2426  -77.4102 H         1 UNK         0.3105 
    102 H102      -76.3231   28.3412  -75.7157 H         1 UNK         0.0547 
    103 H103      -77.5659   28.5041  -77.8381 H         1 UNK         0.0837 
    104 H104      -77.9208   26.7841  -77.8095 H         1 UNK         0.0837 
    105 H105      -78.6107   27.8498  -76.5868 H         1 UNK         0.0837 
    106 H106      -77.6836   25.9167  -75.3615 H         1 UNK         0.3020 
    107 H107      -75.4177   24.3339  -73.0726 H         1 UNK         0.1245 
    108 H108      -77.7910   24.2210  -71.9808 H         1 UNK         0.0781 
    109 H109      -78.0736   25.7904  -72.6788 H         1 UNK         0.0781 
    110 H110      -76.8910   27.7579  -69.6255 H         1 UNK         0.0836 
    111 H111      -78.3376   26.9307  -70.1450 H         1 UNK         0.0836 
    112 H112      -77.8970   23.7403  -74.5232 H         1 UNK         0.3022 
    113 H113      -76.2601   21.7120  -76.9078 H         1 UNK         0.0747 
    114 H114      -77.6420   19.8377  -76.0413 H         1 UNK         0.0793 
    115 H115      -76.2592   20.1038  -74.9938 H         1 UNK         0.0793 
    116 H116      -77.8488   20.6679  -74.4978 H         1 UNK         0.0793 
    117 H117      -79.0222   22.0113  -76.2323 H         1 UNK         0.3047 
    118 H118      -79.6047   25.0783  -77.9179 H         1 UNK         0.0822 
    119 H119      -81.2136   23.7113  -79.2090 H         1 UNK         0.0807 
    120 H120      -80.3916   22.2264  -78.7270 H         1 UNK         0.0807 
    121 H121      -79.5806   23.3905  -79.7653 H         1 UNK         0.0807 
    122 H122      -81.4578   23.3530  -76.7290 H         1 UNK         0.2946 
    123 H123      -82.3983   23.7123  -74.7844 H         1 UNK         0.1144 
    124 H124      -80.1777   23.7875  -72.6621 H         1 UNK         0.0793 
    125 H125      -80.6774   22.3639  -73.5659 H         1 UNK         0.0793 
    126 H126      -81.7940   23.1219  -72.4425 H         1 UNK         0.0793 
    127 H127      -81.4607   25.8543  -72.9785 H         1 UNK         0.2896 
@<TRIPOS>BOND
     1    1    2 1    
     2    1   67 1    
     3    1   68 1    
     4    1   69 1    
     5    2    3 2    
     6    2    4 am   BACKBONE|DICT|INTERRES
     7    4    5 1    
     8    4   70 1    
     9    5    6 1    
    10    5   65 1    
    11    5   71 1    
    12    6    7 1    
    13    6   72 1    
    14    6   73 1    
    15    7    8 1    
    16    8    9 1    
    17    8   74 1    
    18    8   75 1    
    19    9   10 ar   
    20    9   14 ar   
    21   10   11 ar   
    22   10   76 1    
    23   11   12 ar   
    24   11   48 1    
    25   12   13 ar   
    26   12   77 1    
    27   13   14 ar   
    28   13   15 1    
    29   14   78 1    
    30   15   16 1    
    31   15   79 1    
    32   15   80 1    
    33   16   17 1    
    34   17   18 1    
    35   17   81 1    
    36   17   82 1    
    37   18   19 1    
    38   18   22 1    
    39   18   83 1    
    40   19   20 am   BACKBONE|DICT|INTERRES
    41   19   21 2    
    42   20   84 1    
    43   20   85 1    
    44   22   23 am   BACKBONE|DICT|INTERRES
    45   22   86 1    
    46   23   24 2    
    47   23   25 1    
    48   25   26 1    
    49   25   27 1    
    50   25   87 1    
    51   26   88 1    
    52   26   89 1    
    53   26   90 1    
    54   27   28 am   BACKBONE|DICT|INTERRES
    55   27   91 1    
    56   28   29 2    
    57   28   30 1    
    58   30   31 1    
    59   30   32 1    
    60   30   92 1    
    61   31   93 1    
    62   31   94 1    
    63   31   95 1    
    64   32   33 am   BACKBONE|DICT|INTERRES
    65   32   96 1    
    66   33   34 2    
    67   33   35 1    
    68   35   36 1    
    69   35   37 1    
    70   35   97 1    
    71   36   98 1    
    72   36   99 1    
    73   36  100 1    
    74   37   38 am   BACKBONE|DICT|INTERRES
    75   37  101 1    
    76   38   39 2    
    77   38   40 1    
    78   40   41 1    
    79   40   42 1    
    80   40  102 1    
    81   41  103 1    
    82   41  104 1    
    83   41  105 1    
    84   42   43 am   BACKBONE|DICT|INTERRES
    85   42  106 1    
    86   43   44 2    
    87   43   45 1    
    88   45   46 1    
    89   45   49 1    
    90   45  107 1    
    91   46   47 1    
    92   46  108 1    
    93   46  109 1    
    94   47   48 1    
    95   48  110 1    
    96   48  111 1    
    97   49   50 am   BACKBONE|DICT|INTERRES
    98   49  112 1    
    99   50   51 2    
   100   50   52 1    
   101   52   53 1    
   102   52   54 1    
   103   52  113 1    
   104   53  114 1    
   105   53  115 1    
   106   53  116 1    
   107   54   55 am   BACKBONE|DICT|INTERRES
   108   54  117 1    
   109   55   56 2    
   110   55   57 1    
   111   57   58 1    
   112   57   59 1    
   113   57  118 1    
   114   58  119 1    
   115   58  120 1    
   116   58  121 1    
   117   59   60 am   BACKBONE|DICT|INTERRES
   118   59  122 1    
   119   60   61 2    
   120   60   62 1    
   121   62   63 1    
   122   62   64 1    
   123   62  123 1    
   124   63  124 1    
   125   63  125 1    
   126   63  126 1    
   127   64   65 am   BACKBONE|DICT|INTERRES
   128   64  127 1    
   129   65   66 2    
@<TRIPOS>SUBSTRUCTURE
     1 UNK         1 GROUP             0       ****    0 ROOT    
