@<TRIPOS>MOLECULE
3R135
127   129    1
SMALL
USER_CHARGES


@<TRIPOS>ATOM
      1 CA        -84.1224   27.8241  -75.9500 C.3       0 UNK        -0.1998 
      2 C         -83.4837   26.5435  -75.4201 C.2       0 UNK         0.4909 
      3 O         -84.0200   25.4610  -75.6490 O.2       0 UNK        -0.5240 
      4 N         -82.3474   26.6070  -74.7176 N.am      1 UNK        -0.4739 
      5 CA        -81.5569   27.7950  -74.4005 C.3       1 UNK         0.0864 
      6 C6        -82.0343   28.4629  -73.0834 C.3       11 UNK        -0.0881 
      7 S7        -81.3645   30.1477  -72.8361 S.3       11 UNK        -0.2682 
      8 C8        -80.8612   30.1325  -71.0824 C.3       11 UNK         0.0289 
      9 C9        -79.6499   29.2469  -70.8136 C.ar      11 UNK        -0.0687 
     10 C10       -79.8312   27.9336  -70.3719 C.ar      11 UNK        -0.0823 
     11 C11       -78.7339   27.1121  -70.1105 C.ar      11 UNK        -0.0830 
     12 C12       -77.4420   27.6247  -70.2520 C.ar      11 UNK        -0.1021 
     13 C13       -77.2398   28.9374  -70.6913 C.ar      11 UNK        -0.0753 
     14 C14       -78.3504   29.7438  -70.9722 C.ar      11 UNK        -0.0933 
     15 C15       -75.8221   29.4772  -70.8532 C.3       11 UNK         0.0166 
     16 S16       -74.8460   28.4629  -72.0088 S.3       11 UNK        -0.2615 
     17 C17       -73.2429   29.3371  -72.0502 C.3       11 UNK        -0.0865 
     18 CA        -73.0929   30.2964  -73.2622 C.3       10 UNK         0.0862 
     19 C         -71.6969   30.9752  -73.2521 C.2       10 UNK         0.5551 
     20 N         -71.5867   32.1604  -72.6678 N.am      10 UNK        -0.7319 
     21 O         -70.7094   30.4143  -73.7229 O.2       10 UNK        -0.5018 
     22 N         -73.3845   29.6217  -74.5357 N.am      10 UNK        -0.4509 
     23 C         -73.5943   30.2402  -75.7046 C.2       10 UNK         0.4899 
     24 O         -73.5018   31.4577  -75.8695 O.2       10 UNK        -0.4839 
     25 CA        -74.0384   29.3291  -76.8633 C.3       9 UNK         0.0222 
     26 CB        -74.3330   30.0924  -78.1724 C.3       9 UNK        -0.1966 
     27 N         -73.1133   28.2143  -77.0860 N.am      9 UNK        -0.4218 
     28 C         -71.8428   28.2741  -77.5146 C.2       9 UNK         0.5020 
     29 O         -71.2574   29.3225  -77.7888 O.2       9 UNK        -0.5274 
     30 CA        -71.0804   26.9403  -77.6638 C.3       8 UNK         0.0270 
     31 CB        -69.8823   26.8947  -76.6994 C.3       8 UNK        -0.1976 
     32 N         -71.9016   25.7471  -77.4374 N.am      8 UNK        -0.4313 
     33 C         -72.8575   25.2646  -78.2399 C.2       8 UNK         0.5041 
     34 O         -73.1390   25.7575  -79.3317 O.2       8 UNK        -0.5577 
     35 CA        -73.6758   24.0652  -77.7195 C.3       7 UNK         0.0284 
     36 CB        -73.0226   22.7281  -78.1210 C.3       7 UNK        -0.1958 
     37 N         -73.9861   24.1138  -76.2769 N.am      7 UNK        -0.4454 
     38 C         -73.1363   24.0201  -75.2431 C.2       7 UNK         0.5089 
     39 O         -71.9248   23.8429  -75.3744 O.2       7 UNK        -0.5125 
     40 CA        -73.6903   24.2308  -73.8294 C.3       6 UNK         0.0408 
     41 CB        -73.2047   25.5832  -73.2851 C.3       6 UNK        -0.1791 
     42 N         -75.1547   24.1976  -73.7552 N.am      6 UNK        -0.4762 
     43 C         -75.8433   23.2103  -73.1653 C.2       6 UNK         0.5007 
     44 O         -75.3374   22.1522  -72.7876 O.2       6 UNK        -0.5032 
     45 CA        -77.3391   23.4614  -72.9004 C.3       5 UNK         0.0783 
     46 C46       -77.5176   24.5655  -71.8314 C.3       11 UNK        -0.0857 
     47 S47       -79.2033   24.5950  -71.1429 S.3       11 UNK        -0.2512 
     48 C48       -78.9531   25.6669  -69.6917 C.3       11 UNK         0.0225 
     49 N         -78.0840   23.7532  -74.1262 N.am      5 UNK        -0.4615 
     50 C         -78.3345   22.8654  -75.0981 C.2       4 UNK         0.5053 
     51 O         -77.9498   21.6963  -75.0787 O.2       4 UNK        -0.5105 
     52 CA        -79.1550   23.3659  -76.2958 C.3       4 UNK         0.0263 
     53 CB        -80.6589   23.3505  -75.9745 C.3       4 UNK        -0.1981 
     54 N         -78.7379   24.7149  -76.6815 N.am      4 UNK        -0.4224 
     55 C         -77.7335   24.9661  -77.5330 C.2       3 UNK         0.4895 
     56 O         -77.1459   24.0884  -78.1632 O.2       3 UNK        -0.5091 
     57 CA        -77.2916   26.4296  -77.7206 C.3       3 UNK         0.0250 
     58 CB        -77.8562   27.0014  -79.0304 C.3       3 UNK        -0.1996 
     59 N         -77.6729   27.3055  -76.6117 N.am      3 UNK        -0.4254 
     60 C         -77.1179   27.2825  -75.3927 C.2       2 UNK         0.5004 
     61 O         -76.1938   26.5333  -75.0718 O.2       2 UNK        -0.5226 
     62 CA        -77.7287   28.2390  -74.3551 C.3       2 UNK         0.0269 
     63 CB        -77.1244   29.6438  -74.4943 C.3       2 UNK        -0.1926 
     64 N         -79.1843   28.3689  -74.4391 N.am      2 UNK        -0.4687 
     65 C         -80.0751   27.3750  -74.3623 C.2       1 UNK         0.5165 
     66 O         -79.7640   26.1818  -74.2985 O.2       1 UNK        -0.5079 
     67 H67       -85.1382   27.6286  -76.2930 H         1 UNK         0.0900 
     68 H68       -83.5541   28.2117  -76.7949 H         1 UNK         0.0900 
     69 H69       -84.1796   28.5946  -75.1827 H         1 UNK         0.0900 
     70 H70       -81.9021   25.7491  -74.4169 H         1 UNK         0.2959 
     71 H71       -81.6534   28.5096  -75.2203 H         1 UNK         0.1079 
     72 H72       -83.1205   28.5584  -73.0840 H         1 UNK         0.0837 
     73 H73       -81.8095   27.8217  -72.2333 H         1 UNK         0.0837 
     74 H74       -81.7072   29.8187  -70.4688 H         1 UNK         0.0685 
     75 H75       -80.6343   31.1555  -70.7785 H         1 UNK         0.0685 
     76 H76       -80.8291   27.5408  -70.2367 H         1 UNK         0.1434 
     77 H77       -76.5881   26.9947  -70.0430 H         1 UNK         0.1329 
     78 H78       -78.2068   30.7611  -71.3091 H         1 UNK         0.1335 
     79 H79       -75.8390   30.5065  -71.2147 H         1 UNK         0.0680 
     80 H80       -75.3317   29.4911  -69.8790 H         1 UNK         0.0680 
     81 H81       -73.1095   29.8812  -71.1132 H         1 UNK         0.1032 
     82 H82       -72.4559   28.5805  -72.0691 H         1 UNK         0.1032 
     83 H83       -73.8456   31.0798  -73.1486 H         1 UNK         0.0461 
     84 H84       -70.6841   32.6084  -72.6358 H         1 UNK         0.3453 
     85 H85       -72.3891   32.6240  -72.2707 H         1 UNK         0.3453 
     86 H86       -73.4740   28.6190  -74.4887 H         1 UNK         0.2984 
     87 H87       -74.9776   28.8757  -76.5488 H         1 UNK         0.0554 
     88 H88       -75.1153   30.8369  -78.0195 H         1 UNK         0.0847 
     89 H89       -74.6776   29.4173  -78.9558 H         1 UNK         0.0847 
     90 H90       -73.4548   30.6199  -78.5454 H         1 UNK         0.0847 
     91 H91       -73.4816   27.2950  -76.8914 H         1 UNK         0.3141 
     92 H92       -70.7018   26.8996  -78.6871 H         1 UNK         0.0743 
     93 H93       -69.2116   27.7392  -76.8649 H         1 UNK         0.0784 
     94 H94       -70.2028   26.9329  -75.6573 H         1 UNK         0.0784 
     95 H95       -69.2951   25.9865  -76.8375 H         1 UNK         0.0784 
     96 H96       -71.7211   25.2183  -76.5861 H         1 UNK         0.3213 
     97 H97       -74.6348   24.1140  -78.2323 H         1 UNK         0.0855 
     98 H98       -72.0290   22.6070  -77.6891 H         1 UNK         0.0814 
     99 H99       -72.9117   22.6627  -79.2042 H         1 UNK         0.0814 
    100 H100      -73.6317   21.8806  -77.8067 H         1 UNK         0.0814 
    101 H101      -74.9550   24.2904  -76.0487 H         1 UNK         0.3105 
    102 H102      -73.2545   23.4503  -73.2024 H         1 UNK         0.0547 
    103 H103      -72.1160   25.6509  -73.3006 H         1 UNK         0.0837 
    104 H104      -73.5933   26.4143  -73.8737 H         1 UNK         0.0837 
    105 H105      -73.5196   25.7266  -72.2516 H         1 UNK         0.0837 
    106 H106      -75.6437   25.0323  -74.0756 H         1 UNK         0.3020 
    107 H107      -77.7391   22.5308  -72.4902 H         1 UNK         0.1245 
    108 H108      -77.2882   25.5473  -72.2499 H         1 UNK         0.0781 
    109 H109      -76.8245   24.4137  -71.0011 H         1 UNK         0.0781 
    110 H110      -79.8304   25.5988  -69.0466 H         1 UNK         0.0836 
    111 H111      -78.1125   25.3027  -69.0990 H         1 UNK         0.0836 
    112 H112      -78.5060   24.6746  -74.1851 H         1 UNK         0.3022 
    113 H113      -78.9893   22.6803  -77.1299 H         1 UNK         0.0747 
    114 H114      -81.0006   22.3333  -75.7792 H         1 UNK         0.0793 
    115 H115      -81.2486   23.7363  -76.8063 H         1 UNK         0.0793 
    116 H116      -80.8968   23.9431  -75.0916 H         1 UNK         0.0793 
    117 H117      -79.1443   25.4795  -76.1566 H         1 UNK         0.3047 
    118 H118      -76.2015   26.4313  -77.7925 H         1 UNK         0.0822 
    119 H119      -77.5609   26.3879  -79.8829 H         1 UNK         0.0807 
    120 H120      -77.4841   28.0093  -79.2162 H         1 UNK         0.0807 
    121 H121      -78.9462   27.0404  -79.0188 H         1 UNK         0.0807 
    122 H122      -78.4274   27.9551  -76.7799 H         1 UNK         0.2946 
    123 H123      -77.4909   27.8444  -73.3654 H         1 UNK         0.1144 
    124 H124      -77.5194   30.3249  -73.7411 H         1 UNK         0.0793 
    125 H125      -77.3187   30.0790  -75.4754 H         1 UNK         0.0793 
    126 H126      -76.0481   29.6162  -74.3566 H         1 UNK         0.0793 
    127 H127      -79.5419   29.3144  -74.4477 H         1 UNK         0.2896 
@<TRIPOS>BOND
     1    1    2 1    
     2    1   67 1    
     3    1   68 1    
     4    1   69 1    
     5    2    3 2    
     6    2    4 am   BACKBONE|DICT|INTERRES
     7    4    5 1    
     8    4   70 1    
     9    5    6 1    
    10    5   65 1    
    11    5   71 1    
    12    6    7 1    
    13    6   72 1    
    14    6   73 1    
    15    7    8 1    
    16    8    9 1    
    17    8   74 1    
    18    8   75 1    
    19    9   10 ar   
    20    9   14 ar   
    21   10   11 ar   
    22   10   76 1    
    23   11   12 ar   
    24   11   48 1    
    25   12   13 ar   
    26   12   77 1    
    27   13   14 ar   
    28   13   15 1    
    29   14   78 1    
    30   15   16 1    
    31   15   79 1    
    32   15   80 1    
    33   16   17 1    
    34   17   18 1    
    35   17   81 1    
    36   17   82 1    
    37   18   19 1    
    38   18   22 1    
    39   18   83 1    
    40   19   20 am   BACKBONE|DICT|INTERRES
    41   19   21 2    
    42   20   84 1    
    43   20   85 1    
    44   22   23 am   BACKBONE|DICT|INTERRES
    45   22   86 1    
    46   23   24 2    
    47   23   25 1    
    48   25   26 1    
    49   25   27 1    
    50   25   87 1    
    51   26   88 1    
    52   26   89 1    
    53   26   90 1    
    54   27   28 am   BACKBONE|DICT|INTERRES
    55   27   91 1    
    56   28   29 2    
    57   28   30 1    
    58   30   31 1    
    59   30   32 1    
    60   30   92 1    
    61   31   93 1    
    62   31   94 1    
    63   31   95 1    
    64   32   33 am   BACKBONE|DICT|INTERRES
    65   32   96 1    
    66   33   34 2    
    67   33   35 1    
    68   35   36 1    
    69   35   37 1    
    70   35   97 1    
    71   36   98 1    
    72   36   99 1    
    73   36  100 1    
    74   37   38 am   BACKBONE|DICT|INTERRES
    75   37  101 1    
    76   38   39 2    
    77   38   40 1    
    78   40   41 1    
    79   40   42 1    
    80   40  102 1    
    81   41  103 1    
    82   41  104 1    
    83   41  105 1    
    84   42   43 am   BACKBONE|DICT|INTERRES
    85   42  106 1    
    86   43   44 2    
    87   43   45 1    
    88   45   46 1    
    89   45   49 1    
    90   45  107 1    
    91   46   47 1    
    92   46  108 1    
    93   46  109 1    
    94   47   48 1    
    95   48  110 1    
    96   48  111 1    
    97   49   50 am   BACKBONE|DICT|INTERRES
    98   49  112 1    
    99   50   51 2    
   100   50   52 1    
   101   52   53 1    
   102   52   54 1    
   103   52  113 1    
   104   53  114 1    
   105   53  115 1    
   106   53  116 1    
   107   54   55 am   BACKBONE|DICT|INTERRES
   108   54  117 1    
   109   55   56 2    
   110   55   57 1    
   111   57   58 1    
   112   57   59 1    
   113   57  118 1    
   114   58  119 1    
   115   58  120 1    
   116   58  121 1    
   117   59   60 am   BACKBONE|DICT|INTERRES
   118   59  122 1    
   119   60   61 2    
   120   60   62 1    
   121   62   63 1    
   122   62   64 1    
   123   62  123 1    
   124   63  124 1    
   125   63  125 1    
   126   63  126 1    
   127   64   65 am   BACKBONE|DICT|INTERRES
   128   64  127 1    
   129   65   66 2    
@<TRIPOS>SUBSTRUCTURE
     1 UNK         1 GROUP             0       ****    0 ROOT    
