@<TRIPOS>MOLECULE
3R135
127   129    1
SMALL
USER_CHARGES


@<TRIPOS>ATOM
      1 CA        -82.8557   26.7054  -70.1647 C.3       0 UNK        -0.1998 
      2 C         -82.2595   26.8417  -71.5569 C.2       0 UNK         0.4909 
      3 O         -81.1949   26.2839  -71.8181 O.2       0 UNK        -0.5240 
      4 N         -82.9478   27.5634  -72.4530 N.am      1 UNK        -0.4739 
      5 CA        -82.5770   27.9084  -73.8403 C.3       1 UNK         0.0864 
      6 C6        -81.2450   28.6949  -73.9697 C.3       11 UNK        -0.0881 
      7 S7        -81.1981   30.1833  -72.9132 S.3       11 UNK        -0.2682 
      8 C8        -79.4673   30.7279  -73.1299 C.3       11 UNK         0.0289 
      9 C9        -78.3887   29.7588  -72.6376 C.ar      11 UNK        -0.0687 
     10 C10       -78.6527   28.7248  -71.7275 C.ar      11 UNK        -0.0823 
     11 C11       -77.6434   27.8452  -71.3248 C.ar      11 UNK        -0.0830 
     12 C12       -76.3462   28.0309  -71.8091 C.ar      11 UNK        -0.1021 
     13 C13       -76.0630   29.0593  -72.7095 C.ar      11 UNK        -0.0753 
     14 C14       -77.0846   29.9206  -73.1163 C.ar      11 UNK        -0.0933 
     15 C15       -74.6627   29.1928  -73.2801 C.3       11 UNK         0.0166 
     16 S16       -73.4870   29.8380  -72.0485 S.3       11 UNK        -0.2615 
     17 C17       -73.3060   31.5728  -72.5975 C.3       11 UNK        -0.0865 
     18 CA        -72.0687   31.8091  -73.5083 C.3       10 UNK         0.0862 
     19 C         -70.7397   31.8460  -72.7007 C.2       10 UNK         0.5551 
     20 N         -70.4408   32.9696  -72.0622 N.am      10 UNK        -0.7319 
     21 O         -69.9979   30.8693  -72.6184 O.2       10 UNK        -0.5018 
     22 N         -72.0530   30.8590  -74.6282 N.am      10 UNK        -0.4509 
     23 C         -71.3077   30.9513  -75.7331 C.2       10 UNK         0.4899 
     24 O         -70.5568   31.8974  -75.9771 O.2       10 UNK        -0.4839 
     25 CA        -71.4760   29.8101  -76.7560 C.3       9 UNK         0.0222 
     26 CB        -70.3150   29.7317  -77.7708 C.3       9 UNK        -0.1966 
     27 N         -71.7411   28.4964  -76.1500 N.am      9 UNK        -0.4218 
     28 C         -70.9090   27.7679  -75.3842 C.2       9 UNK         0.5020 
     29 O         -69.7981   28.1556  -75.0216 O.2       9 UNK        -0.5274 
     30 CA        -71.3646   26.3518  -74.9643 C.3       8 UNK         0.0270 
     31 CB        -71.6937   26.2951  -73.4636 C.3       8 UNK        -0.1976 
     32 N         -72.4997   25.8356  -75.7377 N.am      8 UNK        -0.4313 
     33 C         -72.4347   25.5027  -77.0371 C.2       8 UNK         0.5041 
     34 O         -71.3814   25.4808  -77.6756 O.2       8 UNK        -0.5577 
     35 CA        -73.7471   25.1663  -77.7742 C.3       7 UNK         0.0284 
     36 CB        -73.8574   23.6469  -77.9858 C.3       7 UNK        -0.1958 
     37 N         -74.9764   25.6522  -77.1366 N.am      7 UNK        -0.4454 
     38 C         -75.2474   26.9139  -76.7701 C.2       7 UNK         0.5089 
     39 O         -74.4875   27.8641  -76.9642 O.2       7 UNK        -0.5125 
     40 CA        -76.5527   27.1452  -75.9871 C.3       6 UNK         0.0408 
     41 CB        -77.6959   27.5250  -76.9380 C.3       6 UNK        -0.1791 
     42 N         -76.9685   26.0124  -75.1511 N.am      6 UNK        -0.4762 
     43 C         -76.2297   25.4295  -74.1914 C.2       6 UNK         0.5007 
     44 O         -75.0620   25.7334  -73.9409 O.2       6 UNK        -0.5032 
     45 CA        -76.8883   24.2600  -73.4399 C.3       5 UNK         0.0783 
     46 C46       -77.9582   24.7284  -72.4169 C.3       11 UNK        -0.0857 
     47 S47       -77.2083   25.1098  -70.7962 S.3       11 UNK        -0.2512 
     48 C48       -77.9688   26.7114  -70.3565 C.3       11 UNK         0.0225 
     49 N         -77.4241   23.3020  -74.4083 N.am      5 UNK        -0.4615 
     50 C         -76.6918   22.3460  -74.9981 C.2       4 UNK         0.5053 
     51 O         -75.5191   22.1082  -74.7096 O.2       4 UNK        -0.5105 
     52 CA        -77.3668   21.5105  -76.1011 C.3       4 UNK         0.0263 
     53 CB        -77.9279   20.2046  -75.5156 C.3       4 UNK        -0.1981 
     54 N         -78.4356   22.2193  -76.8075 N.am      4 UNK        -0.4224 
     55 C         -78.2586   23.2991  -77.5823 C.2       3 UNK         0.4895 
     56 O         -77.1634   23.8081  -77.8141 O.2       3 UNK        -0.5091 
     57 CA        -79.5302   23.9545  -78.1465 C.3       3 UNK         0.0250 
     58 CB        -79.9387   23.2880  -79.4696 C.3       3 UNK        -0.1996 
     59 N         -80.6638   23.9375  -77.2140 N.am      3 UNK        -0.4254 
     60 C         -80.6555   24.4818  -75.9892 C.2       2 UNK         0.5004 
     61 O         -79.6687   25.0239  -75.4821 O.2       2 UNK        -0.5226 
     62 CA        -81.9432   24.3385  -75.1672 C.3       2 UNK         0.0269 
     63 CB        -81.8469   23.1169  -74.2392 C.3       2 UNK        -0.1926 
     64 N         -82.1588   25.5323  -74.3554 N.am      2 UNK        -0.4687 
     65 C         -82.5833   26.7128  -74.8183 C.2       1 UNK         0.5165 
     66 O         -82.9760   26.8830  -75.9739 O.2       1 UNK        -0.5079 
     67 H67       -83.7981   27.2442  -70.0688 H         1 UNK         0.0900 
     68 H68       -83.0388   25.6557  -69.9369 H         1 UNK         0.0900 
     69 H69       -82.1623   27.0994  -69.4223 H         1 UNK         0.0900 
     70 H70       -83.8304   27.9583  -72.1589 H         1 UNK         0.2959 
     71 H71       -83.3726   28.5708  -74.1863 H         1 UNK         0.1079 
     72 H72       -81.0911   29.0146  -75.0023 H         1 UNK         0.0837 
     73 H73       -80.4001   28.0481  -73.7282 H         1 UNK         0.0837 
     74 H74       -79.3111   30.9390  -74.1891 H         1 UNK         0.0685 
     75 H75       -79.3402   31.6754  -72.6048 H         1 UNK         0.0685 
     76 H76       -79.6510   28.5858  -71.3383 H         1 UNK         0.1434 
     77 H77       -75.5541   27.3601  -71.5052 H         1 UNK         0.1329 
     78 H78       -76.8671   30.7125  -73.8201 H         1 UNK         0.1335 
     79 H79       -74.6700   29.8155  -74.1756 H         1 UNK         0.0680 
     80 H80       -74.3258   28.2129  -73.6121 H         1 UNK         0.0680 
     81 H81       -74.2124   31.8793  -73.1216 H         1 UNK         0.1032 
     82 H82       -73.2637   32.2123  -71.7137 H         1 UNK         0.1032 
     83 H83       -72.1853   32.7996  -73.9531 H         1 UNK         0.0461 
     84 H84       -69.5908   33.0136  -71.5219 H         1 UNK         0.3453 
     85 H85       -71.0411   33.7779  -72.1161 H         1 UNK         0.3453 
     86 H86       -72.5848   30.0150  -74.4842 H         1 UNK         0.2984 
     87 H87       -72.3773   30.0542  -77.3202 H         1 UNK         0.0554 
     88 H88       -70.2270   30.6593  -78.3377 H         1 UNK         0.0847 
     89 H89       -70.4703   28.9276  -78.4902 H         1 UNK         0.0847 
     90 H90       -69.3570   29.5617  -77.2787 H         1 UNK         0.0847 
     91 H91       -72.6466   28.0966  -76.3866 H         1 UNK         0.3141 
     92 H92       -70.5172   25.6857  -75.1402 H         1 UNK         0.0743 
     93 H93       -72.5370   26.9326  -73.2056 H         1 UNK         0.0784 
     94 H94       -71.9359   25.2799  -73.1487 H         1 UNK         0.0784 
     95 H95       -70.8440   26.6260  -72.8648 H         1 UNK         0.0784 
     96 H96       -73.3998   25.8067  -75.2679 H         1 UNK         0.3213 
     97 H97       -73.6872   25.6444  -78.7538 H         1 UNK         0.0855 
     98 H98       -74.0216   23.1207  -77.0444 H         1 UNK         0.0814 
     99 H99       -72.9476   23.2430  -78.4323 H         1 UNK         0.0814 
    100 H100      -74.6782   23.3980  -78.6581 H         1 UNK         0.0814 
    101 H101      -75.7082   24.9613  -77.0007 H         1 UNK         0.3105 
    102 H102      -76.3832   27.9885  -75.3179 H         1 UNK         0.0547 
    103 H103      -77.4447   28.4178  -77.5120 H         1 UNK         0.0837 
    104 H104      -77.9035   26.7274  -77.6505 H         1 UNK         0.0837 
    105 H105      -78.6152   27.7374  -76.3915 H         1 UNK         0.0837 
    106 H106      -77.9195   25.6763  -75.2918 H         1 UNK         0.3020 
    107 H107      -76.0935   23.7552  -72.8848 H         1 UNK         0.1245 
    108 H108      -78.6852   23.9340  -72.2417 H         1 UNK         0.0781 
    109 H109      -78.5389   25.5759  -72.7884 H         1 UNK         0.0781 
    110 H110      -77.6246   26.9981  -69.3623 H         1 UNK         0.0836 
    111 H111      -79.0471   26.5680  -70.2770 H         1 UNK         0.0836 
    112 H112      -78.3591   23.4879  -74.7479 H         1 UNK         0.3022 
    113 H113      -76.5970   21.2560  -76.8330 H         1 UNK         0.0747 
    114 H114      -78.3327   19.5604  -76.2965 H         1 UNK         0.0793 
    115 H115      -77.1470   19.6391  -75.0050 H         1 UNK         0.0793 
    116 H116      -78.7201   20.3941  -74.7900 H         1 UNK         0.0793 
    117 H117      -79.3756   21.8757  -76.6760 H         1 UNK         0.3047 
    118 H118      -79.2958   24.9997  -78.3538 H         1 UNK         0.0822 
    119 H119      -80.7780   23.8068  -79.9333 H         1 UNK         0.0807 
    120 H120      -80.2244   22.2449  -79.3281 H         1 UNK         0.0807 
    121 H121      -79.1152   23.3060  -80.1853 H         1 UNK         0.0807 
    122 H122      -81.5112   23.4994  -77.5465 H         1 UNK         0.2946 
    123 H123      -82.7934   24.2120  -75.8414 H         1 UNK         0.1144 
    124 H124      -82.7579   22.9929  -73.6533 H         1 UNK         0.0793 
    125 H125      -81.0119   23.2047  -73.5422 H         1 UNK         0.0793 
    126 H126      -81.7024   22.1987  -74.8101 H         1 UNK         0.0793 
    127 H127      -81.7749   25.5277  -73.4134 H         1 UNK         0.2896 
@<TRIPOS>BOND
     1    1    2 1    
     2    1   67 1    
     3    1   68 1    
     4    1   69 1    
     5    2    3 2    
     6    2    4 am   BACKBONE|DICT|INTERRES
     7    4    5 1    
     8    4   70 1    
     9    5    6 1    
    10    5   65 1    
    11    5   71 1    
    12    6    7 1    
    13    6   72 1    
    14    6   73 1    
    15    7    8 1    
    16    8    9 1    
    17    8   74 1    
    18    8   75 1    
    19    9   10 ar   
    20    9   14 ar   
    21   10   11 ar   
    22   10   76 1    
    23   11   12 ar   
    24   11   48 1    
    25   12   13 ar   
    26   12   77 1    
    27   13   14 ar   
    28   13   15 1    
    29   14   78 1    
    30   15   16 1    
    31   15   79 1    
    32   15   80 1    
    33   16   17 1    
    34   17   18 1    
    35   17   81 1    
    36   17   82 1    
    37   18   19 1    
    38   18   22 1    
    39   18   83 1    
    40   19   20 am   BACKBONE|DICT|INTERRES
    41   19   21 2    
    42   20   84 1    
    43   20   85 1    
    44   22   23 am   BACKBONE|DICT|INTERRES
    45   22   86 1    
    46   23   24 2    
    47   23   25 1    
    48   25   26 1    
    49   25   27 1    
    50   25   87 1    
    51   26   88 1    
    52   26   89 1    
    53   26   90 1    
    54   27   28 am   BACKBONE|DICT|INTERRES
    55   27   91 1    
    56   28   29 2    
    57   28   30 1    
    58   30   31 1    
    59   30   32 1    
    60   30   92 1    
    61   31   93 1    
    62   31   94 1    
    63   31   95 1    
    64   32   33 am   BACKBONE|DICT|INTERRES
    65   32   96 1    
    66   33   34 2    
    67   33   35 1    
    68   35   36 1    
    69   35   37 1    
    70   35   97 1    
    71   36   98 1    
    72   36   99 1    
    73   36  100 1    
    74   37   38 am   BACKBONE|DICT|INTERRES
    75   37  101 1    
    76   38   39 2    
    77   38   40 1    
    78   40   41 1    
    79   40   42 1    
    80   40  102 1    
    81   41  103 1    
    82   41  104 1    
    83   41  105 1    
    84   42   43 am   BACKBONE|DICT|INTERRES
    85   42  106 1    
    86   43   44 2    
    87   43   45 1    
    88   45   46 1    
    89   45   49 1    
    90   45  107 1    
    91   46   47 1    
    92   46  108 1    
    93   46  109 1    
    94   47   48 1    
    95   48  110 1    
    96   48  111 1    
    97   49   50 am   BACKBONE|DICT|INTERRES
    98   49  112 1    
    99   50   51 2    
   100   50   52 1    
   101   52   53 1    
   102   52   54 1    
   103   52  113 1    
   104   53  114 1    
   105   53  115 1    
   106   53  116 1    
   107   54   55 am   BACKBONE|DICT|INTERRES
   108   54  117 1    
   109   55   56 2    
   110   55   57 1    
   111   57   58 1    
   112   57   59 1    
   113   57  118 1    
   114   58  119 1    
   115   58  120 1    
   116   58  121 1    
   117   59   60 am   BACKBONE|DICT|INTERRES
   118   59  122 1    
   119   60   61 2    
   120   60   62 1    
   121   62   63 1    
   122   62   64 1    
   123   62  123 1    
   124   63  124 1    
   125   63  125 1    
   126   63  126 1    
   127   64   65 am   BACKBONE|DICT|INTERRES
   128   64  127 1    
   129   65   66 2    
@<TRIPOS>SUBSTRUCTURE
     1 UNK         1 GROUP             0       ****    0 ROOT    
