@<TRIPOS>MOLECULE
3R135
127   129    1
SMALL
USER_CHARGES


@<TRIPOS>ATOM
      1 CA        -80.1557   21.6906  -72.4817 C.3       0 UNK        -0.1998 
      2 C         -80.7833   23.0143  -72.8897 C.2       0 UNK         0.4909 
      3 O         -81.4539   23.0791  -73.9208 O.2       0 UNK        -0.5240 
      4 N         -80.5683   24.0706  -72.0931 N.am      1 UNK        -0.4739 
      5 CA        -81.0699   25.4288  -72.3316 C.3       1 UNK         0.0864 
      6 C6        -80.7876   26.3817  -71.1388 C.3       11 UNK        -0.0881 
      7 S7        -79.0421   26.4395  -70.5851 S.3       11 UNK        -0.2682 
      8 C8        -79.0050   28.0201  -69.6740 C.3       11 UNK         0.0289 
      9 C9        -78.2982   29.1447  -70.4277 C.ar      11 UNK        -0.0687 
     10 C10       -78.6753   29.4922  -71.7303 C.ar      11 UNK        -0.0823 
     11 C11       -78.0472   30.5528  -72.3918 C.ar      11 UNK        -0.0830 
     12 C12       -77.0603   31.2870  -71.7332 C.ar      11 UNK        -0.1021 
     13 C13       -76.6544   30.9418  -70.4413 C.ar      11 UNK        -0.0753 
     14 C14       -77.2808   29.8705  -69.7956 C.ar      11 UNK        -0.0933 
     15 C15       -75.5701   31.7384  -69.7192 C.3       11 UNK         0.0166 
     16 S16       -74.1824   32.2481  -70.7930 S.3       11 UNK        -0.2615 
     17 C17       -73.3972   30.6477  -71.1882 C.3       11 UNK        -0.0865 
     18 CA        -73.6656   30.1402  -72.6331 C.3       10 UNK         0.0862 
     19 C         -73.0963   31.0729  -73.7291 C.2       10 UNK         0.5551 
     20 N         -73.9439   31.6334  -74.5802 N.am      10 UNK        -0.7319 
     21 O         -71.8901   31.2992  -73.8025 O.2       10 UNK        -0.5018 
     22 N         -73.0947   28.8069  -72.8201 N.am      10 UNK        -0.4509 
     23 C         -73.6581   27.6609  -72.4371 C.2       10 UNK         0.4899 
     24 O         -74.7808   27.5831  -71.9391 O.2       10 UNK        -0.4839 
     25 CA        -72.8100   26.3930  -72.6348 C.3       9 UNK         0.0222 
     26 CB        -73.4538   25.1516  -71.9935 C.3       9 UNK        -0.1966 
     27 N         -72.5365   26.1103  -74.0459 N.am      9 UNK        -0.4218 
     28 C         -71.5764   26.6937  -74.7749 C.2       9 UNK         0.5020 
     29 O         -70.9132   27.6504  -74.3702 O.2       9 UNK        -0.5274 
     30 CA        -71.2319   26.0859  -76.1441 C.3       8 UNK         0.0270 
     31 CB        -70.0475   25.1096  -75.9491 C.3       8 UNK        -0.1976 
     32 N         -72.3635   25.4269  -76.8159 N.am      8 UNK        -0.4313 
     33 C         -72.3141   24.9099  -78.0540 C.2       8 UNK         0.5041 
     34 O         -71.3171   24.9434  -78.7775 O.2       8 UNK        -0.5577 
     35 CA        -73.5924   24.2512  -78.5975 C.3       7 UNK         0.0284 
     36 CB        -73.9117   22.9409  -77.8578 C.3       7 UNK        -0.1958 
     37 N         -74.7421   25.1543  -78.5625 N.am      7 UNK        -0.4454 
     38 C         -74.8735   26.2371  -79.3431 C.2       7 UNK         0.5089 
     39 O         -74.0671   26.5569  -80.2174 O.2       7 UNK        -0.5125 
     40 CA        -76.1129   27.1197  -79.1181 C.3       6 UNK         0.0408 
     41 CB        -77.2848   26.6285  -79.9820 C.3       6 UNK        -0.1791 
     42 N         -76.5324   27.1867  -77.7175 N.am      6 UNK        -0.4762 
     43 C         -75.8070   27.7265  -76.7249 C.2       6 UNK         0.5007 
     44 O         -74.7062   28.2554  -76.8831 O.2       6 UNK        -0.5032 
     45 CA        -76.3976   27.6067  -75.3072 C.3       5 UNK         0.0783 
     46 C46       -77.5978   28.5638  -75.1105 C.3       11 UNK        -0.0857 
     47 S47       -77.1503   30.3241  -74.9934 S.3       11 UNK        -0.2512 
     48 C48       -78.4139   30.9165  -73.8216 C.3       11 UNK         0.0225 
     49 N         -76.7907   26.2287  -75.0013 N.am      5 UNK        -0.4615 
     50 C         -76.0243   25.1326  -75.0676 C.2       4 UNK         0.5053 
     51 O         -74.8226   25.1390  -75.3366 O.2       4 UNK        -0.5105 
     52 CA        -76.7412   23.7897  -74.8588 C.3       4 UNK         0.0263 
     53 CB        -76.9258   23.4757  -73.3663 C.3       4 UNK        -0.1981 
     54 N         -78.0411   23.7643  -75.5320 N.am      4 UNK        -0.4224 
     55 C         -78.2008   23.7053  -76.8615 C.2       3 UNK         0.4895 
     56 O         -77.2680   23.6283  -77.6607 O.2       3 UNK        -0.5091 
     57 CA        -79.6436   23.7753  -77.3877 C.3       3 UNK         0.0250 
     58 CB        -80.3177   22.3963  -77.3117 C.3       3 UNK        -0.1996 
     59 N         -80.4548   24.7634  -76.6717 N.am      3 UNK        -0.4254 
     60 C         -80.2690   26.0887  -76.7627 C.2       2 UNK         0.5004 
     61 O         -79.4188   26.6098  -77.4837 O.2       2 UNK        -0.5226 
     62 CA        -81.1449   26.9886  -75.8700 C.3       2 UNK         0.0269 
     63 CB        -82.4539   27.3455  -76.5914 C.3       2 UNK        -0.1926 
     64 N         -81.4529   26.4262  -74.5490 N.am      2 UNK        -0.4687 
     65 C         -80.5424   25.9967  -73.6634 C.2       1 UNK         0.5165 
     66 O         -79.3306   26.0054  -73.8776 O.2       1 UNK        -0.5079 
     67 H67       -80.9322   20.9834  -72.1916 H         1 UNK         0.0900 
     68 H68       -79.6027   21.2629  -73.3175 H         1 UNK         0.0900 
     69 H69       -79.4694   21.8067  -71.6431 H         1 UNK         0.0900 
     70 H70       -79.9759   23.9738  -71.2805 H         1 UNK         0.2959 
     71 H71       -82.1550   25.3414  -72.4212 H         1 UNK         0.1079 
     72 H72       -81.3877   26.0679  -70.2833 H         1 UNK         0.0837 
     73 H73       -81.1287   27.3914  -71.3752 H         1 UNK         0.0837 
     74 H74       -80.0182   28.3382  -69.4254 H         1 UNK         0.0685 
     75 H75       -78.5079   27.8363  -68.7204 H         1 UNK         0.0685 
     76 H76       -79.4510   28.9304  -72.2310 H         1 UNK         0.1434 
     77 H77       -76.5908   32.1171  -72.2427 H         1 UNK         0.1329 
     78 H78       -76.9848   29.6102  -68.7886 H         1 UNK         0.1335 
     79 H79       -76.0274   32.6342  -69.2976 H         1 UNK         0.0680 
     80 H80       -75.1707   31.1711  -68.8770 H         1 UNK         0.0680 
     81 H81       -72.3235   30.7445  -71.0168 H         1 UNK         0.1032 
     82 H82       -73.7432   29.9051  -70.4677 H         1 UNK         0.1032 
     83 H83       -74.7451   30.0655  -72.7775 H         1 UNK         0.0461 
     84 H84       -74.9314   31.4289  -74.5406 H         1 UNK         0.3453 
     85 H85       -73.5868   32.2467  -75.2955 H         1 UNK         0.3453 
     86 H86       -72.1923   28.7718  -73.2879 H         1 UNK         0.2984 
     87 H87       -71.8589   26.5608  -72.1245 H         1 UNK         0.0554 
     88 H88       -73.5987   25.2966  -70.9222 H         1 UNK         0.0847 
     89 H89       -72.8322   24.2651  -72.1201 H         1 UNK         0.0847 
     90 H90       -74.4307   24.9461  -72.4265 H         1 UNK         0.0847 
     91 H91       -73.1338   25.4114  -74.4743 H         1 UNK         0.3141 
     92 H92       -70.9055   26.9097  -76.7821 H         1 UNK         0.0743 
     93 H93       -70.3587   24.2025  -75.4298 H         1 UNK         0.0784 
     94 H94       -69.5946   24.8150  -76.8948 H         1 UNK         0.0784 
     95 H95       -69.2519   25.5656  -75.3576 H         1 UNK         0.0784 
     96 H96       -73.2555   25.4079  -76.3251 H         1 UNK         0.3213 
     97 H97       -73.4091   23.9957  -79.6437 H         1 UNK         0.0855 
     98 H98       -74.1130   23.1012  -76.7997 H         1 UNK         0.0814 
     99 H99       -73.0745   22.2450  -77.9253 H         1 UNK         0.0814 
    100 H100      -74.7803   22.4443  -78.2906 H         1 UNK         0.0814 
    101 H101      -75.4826   24.9347  -77.9071 H         1 UNK         0.3105 
    102 H102      -75.8587   28.1332  -79.4352 H         1 UNK         0.0547 
    103 H103      -77.0025   26.5801  -81.0345 H         1 UNK         0.0837 
    104 H104      -77.6142   25.6319  -79.6850 H         1 UNK         0.0837 
    105 H105      -78.1410   27.2990  -79.9070 H         1 UNK         0.0837 
    106 H106      -77.4531   26.8108  -77.5048 H         1 UNK         0.3020 
    107 H107      -75.6151   27.8784  -74.5975 H         1 UNK         0.1245 
    108 H108      -78.1175   28.2922  -74.1926 H         1 UNK         0.0781 
    109 H109      -78.3283   28.4518  -75.9110 H         1 UNK         0.0781 
    110 H110      -79.3912   30.5134  -74.0924 H         1 UNK         0.0836 
    111 H111      -78.4972   32.0008  -73.9100 H         1 UNK         0.0836 
    112 H112      -77.7569   26.1070  -74.7004 H         1 UNK         0.3022 
    113 H113      -76.1193   23.0049  -75.2943 H         1 UNK         0.0747 
    114 H114      -77.4564   22.5354  -73.2247 H         1 UNK         0.0793 
    115 H115      -75.9631   23.3663  -72.8694 H         1 UNK         0.0793 
    116 H116      -77.4797   24.2592  -72.8469 H         1 UNK         0.0793 
    117 H117      -78.8580   23.9084  -74.9551 H         1 UNK         0.3047 
    118 H118      -79.5973   24.0729  -78.4378 H         1 UNK         0.0822 
    119 H119      -81.3160   22.4185  -77.7491 H         1 UNK         0.0807 
    120 H120      -80.4104   22.0449  -76.2834 H         1 UNK         0.0807 
    121 H121      -79.7409   21.6503  -77.8604 H         1 UNK         0.0807 
    122 H122      -81.1498   24.4117  -76.0258 H         1 UNK         0.2946 
    123 H123      -80.5909   27.9138  -75.7034 H         1 UNK         0.1144 
    124 H124      -83.0797   26.4667  -76.7523 H         1 UNK         0.0793 
    125 H125      -82.2529   27.7859  -77.5692 H         1 UNK         0.0793 
    126 H126      -83.0348   28.0737  -76.0249 H         1 UNK         0.0793 
    127 H127      -82.4321   26.3626  -74.3091 H         1 UNK         0.2896 
@<TRIPOS>BOND
     1    1    2 1    
     2    1   67 1    
     3    1   68 1    
     4    1   69 1    
     5    2    3 2    
     6    2    4 am   BACKBONE|DICT|INTERRES
     7    4    5 1    
     8    4   70 1    
     9    5    6 1    
    10    5   65 1    
    11    5   71 1    
    12    6    7 1    
    13    6   72 1    
    14    6   73 1    
    15    7    8 1    
    16    8    9 1    
    17    8   74 1    
    18    8   75 1    
    19    9   10 ar   
    20    9   14 ar   
    21   10   11 ar   
    22   10   76 1    
    23   11   12 ar   
    24   11   48 1    
    25   12   13 ar   
    26   12   77 1    
    27   13   14 ar   
    28   13   15 1    
    29   14   78 1    
    30   15   16 1    
    31   15   79 1    
    32   15   80 1    
    33   16   17 1    
    34   17   18 1    
    35   17   81 1    
    36   17   82 1    
    37   18   19 1    
    38   18   22 1    
    39   18   83 1    
    40   19   20 am   BACKBONE|DICT|INTERRES
    41   19   21 2    
    42   20   84 1    
    43   20   85 1    
    44   22   23 am   BACKBONE|DICT|INTERRES
    45   22   86 1    
    46   23   24 2    
    47   23   25 1    
    48   25   26 1    
    49   25   27 1    
    50   25   87 1    
    51   26   88 1    
    52   26   89 1    
    53   26   90 1    
    54   27   28 am   BACKBONE|DICT|INTERRES
    55   27   91 1    
    56   28   29 2    
    57   28   30 1    
    58   30   31 1    
    59   30   32 1    
    60   30   92 1    
    61   31   93 1    
    62   31   94 1    
    63   31   95 1    
    64   32   33 am   BACKBONE|DICT|INTERRES
    65   32   96 1    
    66   33   34 2    
    67   33   35 1    
    68   35   36 1    
    69   35   37 1    
    70   35   97 1    
    71   36   98 1    
    72   36   99 1    
    73   36  100 1    
    74   37   38 am   BACKBONE|DICT|INTERRES
    75   37  101 1    
    76   38   39 2    
    77   38   40 1    
    78   40   41 1    
    79   40   42 1    
    80   40  102 1    
    81   41  103 1    
    82   41  104 1    
    83   41  105 1    
    84   42   43 am   BACKBONE|DICT|INTERRES
    85   42  106 1    
    86   43   44 2    
    87   43   45 1    
    88   45   46 1    
    89   45   49 1    
    90   45  107 1    
    91   46   47 1    
    92   46  108 1    
    93   46  109 1    
    94   47   48 1    
    95   48  110 1    
    96   48  111 1    
    97   49   50 am   BACKBONE|DICT|INTERRES
    98   49  112 1    
    99   50   51 2    
   100   50   52 1    
   101   52   53 1    
   102   52   54 1    
   103   52  113 1    
   104   53  114 1    
   105   53  115 1    
   106   53  116 1    
   107   54   55 am   BACKBONE|DICT|INTERRES
   108   54  117 1    
   109   55   56 2    
   110   55   57 1    
   111   57   58 1    
   112   57   59 1    
   113   57  118 1    
   114   58  119 1    
   115   58  120 1    
   116   58  121 1    
   117   59   60 am   BACKBONE|DICT|INTERRES
   118   59  122 1    
   119   60   61 2    
   120   60   62 1    
   121   62   63 1    
   122   62   64 1    
   123   62  123 1    
   124   63  124 1    
   125   63  125 1    
   126   63  126 1    
   127   64   65 am   BACKBONE|DICT|INTERRES
   128   64  127 1    
   129   65   66 2    
@<TRIPOS>SUBSTRUCTURE
     1 UNK         1 GROUP             0       ****    0 ROOT    
