@<TRIPOS>MOLECULE
3R135
127   129    1
SMALL
USER_CHARGES


@<TRIPOS>ATOM
      1 CA        -81.5207   32.3000  -76.0400 C.3       0 UNK        -0.1998 
      2 C         -80.6826   31.2219  -75.3689 C.2       0 UNK         0.4909 
      3 O         -79.4656   31.1949  -75.5494 O.2       0 UNK        -0.5240 
      4 N         -81.3261   30.3422  -74.5911 N.am      1 UNK        -0.4739 
      5 CA        -80.7045   29.2081  -73.8989 C.3       1 UNK         0.0864 
      6 C6        -81.6903   28.5651  -72.8901 C.3       11 UNK        -0.0881 
      7 S7        -81.8137   29.5793  -71.3765 S.3       11 UNK        -0.2682 
      8 C8        -80.9111   28.5763  -70.1443 C.3       11 UNK         0.0289 
      9 C9        -79.5806   28.0508  -70.6699 C.ar      11 UNK        -0.0687 
     10 C10       -79.4168   26.6844  -70.9157 C.ar      11 UNK        -0.0823 
     11 C11       -78.2243   26.1883  -71.4504 C.ar      11 UNK        -0.0830 
     12 C12       -77.1847   27.0828  -71.7356 C.ar      11 UNK        -0.1021 
     13 C13       -77.3344   28.4505  -71.4892 C.ar      11 UNK        -0.0753 
     14 C14       -78.5290   28.9281  -70.9438 C.ar      11 UNK        -0.0933 
     15 C15       -76.2148   29.4186  -71.8296 C.3       11 UNK         0.0166 
     16 S16       -76.4229   30.0808  -73.5108 S.3       11 UNK        -0.2615 
     17 C17       -75.1222   31.3648  -73.5380 C.3       11 UNK        -0.0865 
     18 CA        -74.0197   31.1206  -74.6109 C.3       10 UNK         0.0862 
     19 C         -72.9947   32.2932  -74.6892 C.2       10 UNK         0.5551 
     20 N         -71.7110   32.0421  -74.9211 N.am      10 UNK        -0.7319 
     21 O         -73.3713   33.4563  -74.5654 O.2       10 UNK        -0.5018 
     22 N         -73.4045   29.7850  -74.5420 N.am      10 UNK        -0.4509 
     23 C         -72.7519   29.2558  -73.4976 C.2       10 UNK         0.4899 
     24 O         -72.6113   29.8168  -72.4110 O.2       10 UNK        -0.4839 
     25 CA        -72.1404   27.8582  -73.6972 C.3       9 UNK         0.0222 
     26 CB        -73.0890   26.7836  -73.1481 C.3       9 UNK        -0.1966 
     27 N         -71.8300   27.5639  -75.0994 N.am      9 UNK        -0.4218 
     28 C         -70.8347   28.1475  -75.7865 C.2       9 UNK         0.5020 
     29 O         -70.0408   28.9464  -75.2872 O.2       9 UNK        -0.5274 
     30 CA        -70.7119   27.8197  -77.2870 C.3       8 UNK         0.0270 
     31 CB        -69.6957   26.6873  -77.5068 C.3       8 UNK        -0.1976 
     32 N         -71.9802   27.4589  -77.9253 N.am      8 UNK        -0.4313 
     33 C         -73.0649   28.2430  -77.9990 C.2       8 UNK         0.5041 
     34 O         -73.1068   29.3976  -77.5740 O.2       8 UNK        -0.5577 
     35 CA        -74.3361   27.6195  -78.6005 C.3       7 UNK         0.0284 
     36 CB        -74.4673   27.9937  -80.0853 C.3       7 UNK        -0.1958 
     37 N         -74.4345   26.1600  -78.4548 N.am      7 UNK        -0.4454 
     38 C         -74.4281   25.4935  -77.2916 C.2       7 UNK         0.5089 
     39 O         -74.2471   26.0344  -76.1982 O.2       7 UNK        -0.5125 
     40 CA        -74.6603   23.9765  -77.3912 C.3       6 UNK         0.0408 
     41 CB        -73.3945   23.2305  -77.8612 C.3       6 UNK        -0.1791 
     42 N         -75.2169   23.4360  -76.1458 N.am      6 UNK        -0.4762 
     43 C         -74.5962   23.1536  -74.9877 C.2       6 UNK         0.5007 
     44 O         -73.3742   23.1262  -74.8393 O.2       6 UNK        -0.5032 
     45 CA        -75.4972   22.8709  -73.7686 C.3       5 UNK         0.0783 
     46 C46       -75.6191   24.1624  -72.9255 C.3       11 UNK        -0.0857 
     47 S47       -76.5240   23.9294  -71.3610 S.3       11 UNK        -0.2512 
     48 C48       -78.1262   24.6963  -71.7637 C.3       11 UNK         0.0225 
     49 N         -76.8053   22.3513  -74.1940 N.am      5 UNK        -0.4615 
     50 C         -77.1972   21.0772  -74.0689 C.2       4 UNK         0.5053 
     51 O         -76.5206   20.2158  -73.5053 O.2       4 UNK        -0.5105 
     52 CA        -78.5362   20.6592  -74.7154 C.3       4 UNK         0.0263 
     53 CB        -79.3780   19.7567  -73.7872 C.3       4 UNK        -0.1981 
     54 N         -79.3300   21.7668  -75.2689 N.am      4 UNK        -0.4224 
     55 C         -80.0199   22.7052  -74.6041 C.2       3 UNK         0.4895 
     56 O         -80.1320   22.7565  -73.3792 O.2       3 UNK        -0.5091 
     57 CA        -80.6743   23.7977  -75.4707 C.3       3 UNK         0.0250 
     58 CB        -82.1465   24.0082  -75.0774 C.3       3 UNK        -0.1996 
     59 N         -79.9767   25.0853  -75.3948 N.am      3 UNK        -0.4254 
     60 C         -78.6751   25.3102  -75.6147 C.2       2 UNK         0.5004 
     61 O         -77.8731   24.4183  -75.8951 O.2       2 UNK        -0.5226 
     62 CA        -78.1497   26.7542  -75.4940 C.3       2 UNK         0.0269 
     63 CB        -77.8813   27.3518  -76.8883 C.3       2 UNK        -0.1926 
     64 N         -78.9508   27.6785  -74.6725 N.am      2 UNK        -0.4687 
     65 C         -80.1802   28.1634  -74.9031 C.2       1 UNK         0.5165 
     66 O         -80.9062   27.7946  -75.8287 O.2       1 UNK        -0.5079 
     67 H67       -81.1770   33.2874  -75.7331 H         1 UNK         0.0900 
     68 H68       -81.4266   32.2275  -77.1232 H         1 UNK         0.0900 
     69 H69       -82.5768   32.2142  -75.7848 H         1 UNK         0.0900 
     70 H70       -82.3281   30.4145  -74.4899 H         1 UNK         0.2959 
     71 H71       -79.8406   29.5979  -73.3558 H         1 UNK         0.1079 
     72 H72       -81.3953   27.5498  -72.6225 H         1 UNK         0.0837 
     73 H73       -82.6840   28.4642  -73.3304 H         1 UNK         0.0837 
     74 H74       -81.5527   27.7522  -69.8285 H         1 UNK         0.0685 
     75 H75       -80.7340   29.1825  -69.2549 H         1 UNK         0.0685 
     76 H76       -80.2345   26.0058  -70.7128 H         1 UNK         0.1434 
     77 H77       -76.2568   26.7282  -72.1575 H         1 UNK         0.1329 
     78 H78       -78.6544   29.9874  -70.7637 H         1 UNK         0.1335 
     79 H79       -75.2462   28.9235  -71.7486 H         1 UNK         0.0680 
     80 H80       -76.2060   30.2393  -71.1105 H         1 UNK         0.0680 
     81 H81       -74.6732   31.4646  -72.5488 H         1 UNK         0.1032 
     82 H82       -75.6217   32.3165  -73.7277 H         1 UNK         0.1032 
     83 H83       -74.5192   31.1375  -75.5802 H         1 UNK         0.0461 
     84 H84       -71.0597   32.8086  -74.9800 H         1 UNK         0.3453 
     85 H85       -71.3879   31.0926  -75.0328 H         1 UNK         0.3453 
     86 H86       -73.4117   29.2752  -75.4167 H         1 UNK         0.2984 
     87 H87       -71.2104   27.8150  -73.1264 H         1 UNK         0.0554 
     88 H88       -72.6697   25.7852  -73.2746 H         1 UNK         0.0847 
     89 H89       -74.0572   26.8096  -73.6495 H         1 UNK         0.0847 
     90 H90       -73.2708   26.9297  -72.0825 H         1 UNK         0.0847 
     91 H91       -72.4724   26.9445  -75.5843 H         1 UNK         0.3141 
     92 H92       -70.3396   28.7174  -77.7852 H         1 UNK         0.0743 
     93 H93       -70.0286   25.7521  -77.0544 H         1 UNK         0.0784 
     94 H94       -69.5243   26.5065  -78.5682 H         1 UNK         0.0784 
     95 H95       -68.7307   26.9380  -77.0637 H         1 UNK         0.0784 
     96 H96       -72.0495   26.5256  -78.3034 H         1 UNK         0.3213 
     97 H97       -75.1808   28.0565  -78.0648 H         1 UNK         0.0855 
     98 H98       -75.4207   27.6616  -80.4968 H         1 UNK         0.0814 
     99 H99       -73.6690   27.5550  -80.6852 H         1 UNK         0.0814 
    100 H100      -74.4193   29.0753  -80.2206 H         1 UNK         0.0814 
    101 H101      -74.5820   25.6362  -79.3061 H         1 UNK         0.3105 
    102 H102      -75.4375   23.8170  -78.1403 H         1 UNK         0.0547 
    103 H103      -73.5392   22.1504  -77.8432 H         1 UNK         0.0837 
    104 H104      -72.5266   23.4645  -77.2440 H         1 UNK         0.0837 
    105 H105      -73.1387   23.5041  -78.8851 H         1 UNK         0.0837 
    106 H106      -76.2290   23.5156  -76.1003 H         1 UNK         0.3020 
    107 H107      -74.9764   22.1257  -73.1629 H         1 UNK         0.1245 
    108 H108      -76.0796   24.9559  -73.5156 H         1 UNK         0.0781 
    109 H109      -74.6272   24.5220  -72.6511 H         1 UNK         0.0781 
    110 H110      -78.8948   24.1469  -71.2179 H         1 UNK         0.0836 
    111 H111      -78.3448   24.5477  -72.8188 H         1 UNK         0.0836 
    112 H112      -77.4065   23.0005  -74.6909 H         1 UNK         0.3022 
    113 H113      -78.2573   20.0523  -75.5781 H         1 UNK         0.0747 
    114 H114      -80.3157   19.4640  -74.2594 H         1 UNK         0.0793 
    115 H115      -78.8408   18.8396  -73.5424 H         1 UNK         0.0793 
    116 H116      -79.6145   20.2498  -72.8441 H         1 UNK         0.0793 
    117 H117      -79.2854   21.8530  -76.2755 H         1 UNK         0.3047 
    118 H118      -80.6501   23.4774  -76.5143 H         1 UNK         0.0822 
    119 H119      -82.6407   24.7113  -75.7484 H         1 UNK         0.0807 
    120 H120      -82.2416   24.3927  -74.0608 H         1 UNK         0.0807 
    121 H121      -82.7019   23.0705  -75.1247 H         1 UNK         0.0807 
    122 H122      -80.5553   25.9034  -75.2471 H         1 UNK         0.2946 
    123 H123      -77.1850   26.6756  -74.9892 H         1 UNK         0.1144 
    124 H124      -78.7992   27.4816  -77.4620 H         1 UNK         0.0793 
    125 H125      -77.2286   26.7027  -77.4723 H         1 UNK         0.0793 
    126 H126      -77.3924   28.3232  -76.8123 H         1 UNK         0.0793 
    127 H127      -78.4674   28.0244  -73.8528 H         1 UNK         0.2896 
@<TRIPOS>BOND
     1    1    2 1    
     2    1   67 1    
     3    1   68 1    
     4    1   69 1    
     5    2    3 2    
     6    2    4 am   BACKBONE|DICT|INTERRES
     7    4    5 1    
     8    4   70 1    
     9    5    6 1    
    10    5   65 1    
    11    5   71 1    
    12    6    7 1    
    13    6   72 1    
    14    6   73 1    
    15    7    8 1    
    16    8    9 1    
    17    8   74 1    
    18    8   75 1    
    19    9   10 ar   
    20    9   14 ar   
    21   10   11 ar   
    22   10   76 1    
    23   11   12 ar   
    24   11   48 1    
    25   12   13 ar   
    26   12   77 1    
    27   13   14 ar   
    28   13   15 1    
    29   14   78 1    
    30   15   16 1    
    31   15   79 1    
    32   15   80 1    
    33   16   17 1    
    34   17   18 1    
    35   17   81 1    
    36   17   82 1    
    37   18   19 1    
    38   18   22 1    
    39   18   83 1    
    40   19   20 am   BACKBONE|DICT|INTERRES
    41   19   21 2    
    42   20   84 1    
    43   20   85 1    
    44   22   23 am   BACKBONE|DICT|INTERRES
    45   22   86 1    
    46   23   24 2    
    47   23   25 1    
    48   25   26 1    
    49   25   27 1    
    50   25   87 1    
    51   26   88 1    
    52   26   89 1    
    53   26   90 1    
    54   27   28 am   BACKBONE|DICT|INTERRES
    55   27   91 1    
    56   28   29 2    
    57   28   30 1    
    58   30   31 1    
    59   30   32 1    
    60   30   92 1    
    61   31   93 1    
    62   31   94 1    
    63   31   95 1    
    64   32   33 am   BACKBONE|DICT|INTERRES
    65   32   96 1    
    66   33   34 2    
    67   33   35 1    
    68   35   36 1    
    69   35   37 1    
    70   35   97 1    
    71   36   98 1    
    72   36   99 1    
    73   36  100 1    
    74   37   38 am   BACKBONE|DICT|INTERRES
    75   37  101 1    
    76   38   39 2    
    77   38   40 1    
    78   40   41 1    
    79   40   42 1    
    80   40  102 1    
    81   41  103 1    
    82   41  104 1    
    83   41  105 1    
    84   42   43 am   BACKBONE|DICT|INTERRES
    85   42  106 1    
    86   43   44 2    
    87   43   45 1    
    88   45   46 1    
    89   45   49 1    
    90   45  107 1    
    91   46   47 1    
    92   46  108 1    
    93   46  109 1    
    94   47   48 1    
    95   48  110 1    
    96   48  111 1    
    97   49   50 am   BACKBONE|DICT|INTERRES
    98   49  112 1    
    99   50   51 2    
   100   50   52 1    
   101   52   53 1    
   102   52   54 1    
   103   52  113 1    
   104   53  114 1    
   105   53  115 1    
   106   53  116 1    
   107   54   55 am   BACKBONE|DICT|INTERRES
   108   54  117 1    
   109   55   56 2    
   110   55   57 1    
   111   57   58 1    
   112   57   59 1    
   113   57  118 1    
   114   58  119 1    
   115   58  120 1    
   116   58  121 1    
   117   59   60 am   BACKBONE|DICT|INTERRES
   118   59  122 1    
   119   60   61 2    
   120   60   62 1    
   121   62   63 1    
   122   62   64 1    
   123   62  123 1    
   124   63  124 1    
   125   63  125 1    
   126   63  126 1    
   127   64   65 am   BACKBONE|DICT|INTERRES
   128   64  127 1    
   129   65   66 2    
@<TRIPOS>SUBSTRUCTURE
     1 UNK         1 GROUP             0       ****    0 ROOT    
