@<TRIPOS>MOLECULE
3R135
127   129    1
SMALL
USER_CHARGES


@<TRIPOS>ATOM
      1 CA        -83.6805   26.9616  -74.0563 C.3       0 UNK        -0.1998 
      2 C         -82.3400   27.6118  -74.3617 C.2       0 UNK         0.4909 
      3 O         -82.1220   28.0592  -75.4888 O.2       0 UNK        -0.5240 
      4 N         -81.4421   27.6626  -73.3671 N.am      1 UNK        -0.4739 
      5 CA        -80.0820   28.2083  -73.4590 C.3       1 UNK         0.0864 
      6 C6        -79.3042   28.0282  -72.1359 C.3       11 UNK        -0.0881 
      7 S7        -79.9882   28.9926  -70.7505 S.3       11 UNK        -0.2682 
      8 C8        -79.0706   28.2796  -69.3424 C.3       11 UNK         0.0289 
      9 C9        -77.5757   28.1672  -69.6185 C.ar      11 UNK        -0.0687 
     10 C10       -76.9876   26.9135  -69.8107 C.ar      11 UNK        -0.0823 
     11 C11       -75.6243   26.8039  -70.1004 C.ar      11 UNK        -0.0830 
     12 C12       -74.8478   27.9627  -70.2074 C.ar      11 UNK        -0.1021 
     13 C13       -75.4238   29.2229  -70.0140 C.ar      11 UNK        -0.0753 
     14 C14       -76.7855   29.3160  -69.7071 C.ar      11 UNK        -0.0933 
     15 C15       -74.5739   30.4837  -70.1016 C.3       11 UNK         0.0166 
     16 S16       -75.1959   31.6609  -71.3465 S.3       11 UNK        -0.2615 
     17 C17       -74.6247   30.9201  -72.9148 C.3       11 UNK        -0.0865 
     18 CA        -75.7037   30.1044  -73.6822 C.3       10 UNK         0.0862 
     19 C         -76.9382   30.9612  -74.0937 C.2       10 UNK         0.5551 
     20 N         -76.8445   31.7890  -75.1236 N.am      10 UNK        -0.7319 
     21 O         -78.0012   30.8505  -73.4918 O.2       10 UNK        -0.5018 
     22 N         -75.1053   29.3262  -74.7828 N.am      10 UNK        -0.4509 
     23 C         -74.4712   29.7981  -75.8683 C.2       10 UNK         0.4899 
     24 O         -74.3488   30.9937  -76.1411 O.2       10 UNK        -0.4839 
     25 CA        -73.8355   28.7313  -76.7750 C.3       9 UNK         0.0222 
     26 CB        -73.0975   29.3135  -77.9984 C.3       9 UNK        -0.1966 
     27 N         -72.9687   27.8480  -75.9912 N.am      9 UNK        -0.4218 
     28 C         -71.8671   28.1813  -75.2978 C.2       9 UNK         0.5020 
     29 O         -71.3291   29.2884  -75.3302 O.2       9 UNK        -0.5274 
     30 CA        -71.2841   27.1004  -74.3745 C.3       8 UNK         0.0270 
     31 CB        -71.8702   27.2562  -72.9616 C.3       8 UNK        -0.1976 
     32 N         -71.5511   25.7496  -74.8768 N.am      8 UNK        -0.4313 
     33 C         -70.7935   25.1346  -75.7967 C.2       8 UNK         0.5041 
     34 O         -69.7408   25.5947  -76.2408 O.2       8 UNK        -0.5577 
     35 CA        -71.3092   23.7869  -76.3289 C.3       7 UNK         0.0284 
     36 CB        -70.9995   22.6529  -75.3378 C.3       7 UNK        -0.1958 
     37 N         -72.7447   23.8097  -76.6198 N.am      7 UNK        -0.4454 
     38 C         -73.3223   24.5413  -77.5850 C.2       7 UNK         0.5089 
     39 O         -72.6981   25.2377  -78.3847 O.2       7 UNK        -0.5125 
     40 CA        -74.8591   24.5046  -77.6646 C.3       6 UNK         0.0408 
     41 CB        -75.3220   23.5479  -78.7739 C.3       6 UNK        -0.1791 
     42 N         -75.5032   24.1251  -76.4038 N.am      6 UNK        -0.4762 
     43 C         -75.5221   24.8745  -75.2938 C.2       6 UNK         0.5007 
     44 O         -74.9861   25.9831  -75.2185 O.2       6 UNK        -0.5032 
     45 CA        -76.2779   24.2793  -74.0876 C.3       5 UNK         0.0783 
     46 C46       -76.2078   25.1631  -72.8165 C.3       11 UNK        -0.0857 
     47 S47       -74.5764   25.0662  -72.0072 S.3       11 UNK        -0.2512 
     48 C48       -74.9900   25.4299  -70.2730 C.3       11 UNK         0.0225 
     49 N         -77.6660   24.0188  -74.4635 N.am      5 UNK        -0.4615 
     50 C         -78.1356   22.9043  -75.0345 C.2       4 UNK         0.5053 
     51 O         -77.4282   21.9383  -75.3203 O.2       4 UNK        -0.5105 
     52 CA        -79.6310   22.8840  -75.3759 C.3       4 UNK         0.0263 
     53 CB        -80.4843   22.8399  -74.0964 C.3       4 UNK        -0.1981 
     54 N         -79.9923   24.0674  -76.1575 N.am      4 UNK        -0.4224 
     55 C         -80.4290   24.0539  -77.4249 C.2       3 UNK         0.4895 
     56 O         -80.6092   23.0250  -78.0775 O.2       3 UNK        -0.5091 
     57 CA        -80.7309   25.4132  -78.0880 C.3       3 UNK         0.0250 
     58 CB        -82.2400   25.7027  -78.0495 C.3       3 UNK        -0.1996 
     59 N         -80.0089   26.5339  -77.4795 N.am      3 UNK        -0.4254 
     60 C         -78.6835   26.7183  -77.5768 C.2       2 UNK         0.5004 
     61 O         -77.9531   26.0239  -78.2821 O.2       2 UNK        -0.5226 
     62 CA        -78.0504   27.8467  -76.7385 C.3       2 UNK         0.0269 
     63 CB        -77.7270   29.0499  -77.6386 C.3       2 UNK        -0.1926 
     64 N         -78.8449   28.3050  -75.5897 N.am      2 UNK        -0.4687 
     65 C         -79.2892   27.5310  -74.5898 C.2       1 UNK         0.5165 
     66 O         -79.1167   26.3128  -74.5392 O.2       1 UNK        -0.5079 
     67 H67       -83.8258   26.0872  -74.6899 H         1 UNK         0.0900 
     68 H68       -84.4906   27.6635  -74.2523 H         1 UNK         0.0900 
     69 H69       -83.7519   26.6430  -73.0165 H         1 UNK         0.0900 
     70 H70       -81.6864   27.2814  -72.4646 H         1 UNK         0.2959 
     71 H71       -80.1674   29.2745  -73.6776 H         1 UNK         0.1079 
     72 H72       -79.2699   26.9746  -71.8502 H         1 UNK         0.0837 
     73 H73       -78.2667   28.3437  -72.2655 H         1 UNK         0.0837 
     74 H74       -79.2318   28.9018  -68.4610 H         1 UNK         0.0685 
     75 H75       -79.4929   27.3012  -69.1078 H         1 UNK         0.0685 
     76 H76       -77.5939   26.0209  -69.7383 H         1 UNK         0.1434 
     77 H77       -73.7935   27.8784  -70.4336 H         1 UNK         0.1329 
     78 H78       -77.2377   30.2875  -69.5605 H         1 UNK         0.1335 
     79 H79       -74.5836   30.9739  -69.1272 H         1 UNK         0.0680 
     80 H80       -73.5300   30.2455  -70.3118 H         1 UNK         0.0680 
     81 H81       -73.7628   30.2839  -72.7078 H         1 UNK         0.1032 
     82 H82       -74.2449   31.7274  -73.5430 H         1 UNK         0.1032 
     83 H83       -76.0770   29.3480  -72.9900 H         1 UNK         0.0461 
     84 H84       -77.6341   32.3506  -75.3978 H         1 UNK         0.3453 
     85 H85       -75.9700   31.8331  -75.6367 H         1 UNK         0.3453 
     86 H86       -75.1546   28.3213  -74.6747 H         1 UNK         0.2984 
     87 H87       -74.6512   28.1108  -77.1491 H         1 UNK         0.0554 
     88 H88       -72.6697   28.5218  -78.6138 H         1 UNK         0.0847 
     89 H89       -72.2905   29.9868  -77.7086 H         1 UNK         0.0847 
     90 H90       -73.7819   29.8821  -78.6290 H         1 UNK         0.0847 
     91 H91       -73.3660   26.9307  -75.8179 H         1 UNK         0.3141 
     92 H92       -70.2043   27.2528  -74.3113 H         1 UNK         0.0743 
     93 H93       -72.9603   27.2480  -72.9753 H         1 UNK         0.0784 
     94 H94       -71.5321   26.4629  -72.2947 H         1 UNK         0.0784 
     95 H95       -71.5641   28.2051  -72.5191 H         1 UNK         0.0784 
     96 H96       -72.3957   25.2977  -74.5560 H         1 UNK         0.3213 
     97 H97       -70.7824   23.5766  -77.2625 H         1 UNK         0.0855 
     98 H98       -71.5213   22.7853  -74.3892 H         1 UNK         0.0814 
     99 H99       -69.9317   22.6098  -75.1182 H         1 UNK         0.0814 
    100 H100      -71.2829   21.6820  -75.7447 H         1 UNK         0.0814 
    101 H101      -73.3431   23.2480  -76.0323 H         1 UNK         0.3105 
    102 H102      -75.1949   25.5114  -77.9225 H         1 UNK         0.0547 
    103 H103      -74.8799   23.8199  -79.7334 H         1 UNK         0.0837 
    104 H104      -75.0391   22.5157  -78.5641 H         1 UNK         0.0837 
    105 H105      -76.4048   23.5833  -78.8979 H         1 UNK         0.0837 
    106 H106      -75.9937   23.2383  -76.3853 H         1 UNK         0.3020 
    107 H107      -75.8026   23.3238  -73.8530 H         1 UNK         0.1245 
    108 H108      -76.9550   24.8241  -72.0973 H         1 UNK         0.0781 
    109 H109      -76.4513   26.2058  -73.0311 H         1 UNK         0.0781 
    110 H110      -74.0778   25.3783  -69.6768 H         1 UNK         0.0836 
    111 H111      -75.6459   24.6466  -69.8897 H         1 UNK         0.0836 
    112 H112      -78.2958   24.8121  -74.3491 H         1 UNK         0.3022 
    113 H113      -79.8256   21.9717  -75.9437 H         1 UNK         0.0747 
    114 H114      -81.5439   22.7471  -74.3349 H         1 UNK         0.0793 
    115 H115      -80.2157   21.9837  -73.4762 H         1 UNK         0.0793 
    116 H116      -80.3584   23.7377  -73.4894 H         1 UNK         0.0793 
    117 H117      -79.8325   24.9654  -75.7104 H         1 UNK         0.3047 
    118 H118      -80.4238   25.3419  -79.1338 H         1 UNK         0.0822 
    119 H119      -82.4786   26.6408  -78.5511 H         1 UNK         0.0807 
    120 H120      -82.6126   25.7652  -77.0266 H         1 UNK         0.0807 
    121 H121      -82.8015   24.9143  -78.5526 H         1 UNK         0.0807 
    122 H122      -80.5442   27.1540  -76.8826 H         1 UNK         0.2946 
    123 H123      -77.1132   27.4497  -76.3432 H         1 UNK         0.1144 
    124 H124      -78.6314   29.4897  -78.0610 H         1 UNK         0.0793 
    125 H125      -77.0880   28.7546  -78.4723 H         1 UNK         0.0793 
    126 H126      -77.2003   29.8310  -77.0934 H         1 UNK         0.0793 
    127 H127      -79.0564   29.2928  -75.5596 H         1 UNK         0.2896 
@<TRIPOS>BOND
     1    1    2 1    
     2    1   67 1    
     3    1   68 1    
     4    1   69 1    
     5    2    3 2    
     6    2    4 am   BACKBONE|DICT|INTERRES
     7    4    5 1    
     8    4   70 1    
     9    5    6 1    
    10    5   65 1    
    11    5   71 1    
    12    6    7 1    
    13    6   72 1    
    14    6   73 1    
    15    7    8 1    
    16    8    9 1    
    17    8   74 1    
    18    8   75 1    
    19    9   10 ar   
    20    9   14 ar   
    21   10   11 ar   
    22   10   76 1    
    23   11   12 ar   
    24   11   48 1    
    25   12   13 ar   
    26   12   77 1    
    27   13   14 ar   
    28   13   15 1    
    29   14   78 1    
    30   15   16 1    
    31   15   79 1    
    32   15   80 1    
    33   16   17 1    
    34   17   18 1    
    35   17   81 1    
    36   17   82 1    
    37   18   19 1    
    38   18   22 1    
    39   18   83 1    
    40   19   20 am   BACKBONE|DICT|INTERRES
    41   19   21 2    
    42   20   84 1    
    43   20   85 1    
    44   22   23 am   BACKBONE|DICT|INTERRES
    45   22   86 1    
    46   23   24 2    
    47   23   25 1    
    48   25   26 1    
    49   25   27 1    
    50   25   87 1    
    51   26   88 1    
    52   26   89 1    
    53   26   90 1    
    54   27   28 am   BACKBONE|DICT|INTERRES
    55   27   91 1    
    56   28   29 2    
    57   28   30 1    
    58   30   31 1    
    59   30   32 1    
    60   30   92 1    
    61   31   93 1    
    62   31   94 1    
    63   31   95 1    
    64   32   33 am   BACKBONE|DICT|INTERRES
    65   32   96 1    
    66   33   34 2    
    67   33   35 1    
    68   35   36 1    
    69   35   37 1    
    70   35   97 1    
    71   36   98 1    
    72   36   99 1    
    73   36  100 1    
    74   37   38 am   BACKBONE|DICT|INTERRES
    75   37  101 1    
    76   38   39 2    
    77   38   40 1    
    78   40   41 1    
    79   40   42 1    
    80   40  102 1    
    81   41  103 1    
    82   41  104 1    
    83   41  105 1    
    84   42   43 am   BACKBONE|DICT|INTERRES
    85   42  106 1    
    86   43   44 2    
    87   43   45 1    
    88   45   46 1    
    89   45   49 1    
    90   45  107 1    
    91   46   47 1    
    92   46  108 1    
    93   46  109 1    
    94   47   48 1    
    95   48  110 1    
    96   48  111 1    
    97   49   50 am   BACKBONE|DICT|INTERRES
    98   49  112 1    
    99   50   51 2    
   100   50   52 1    
   101   52   53 1    
   102   52   54 1    
   103   52  113 1    
   104   53  114 1    
   105   53  115 1    
   106   53  116 1    
   107   54   55 am   BACKBONE|DICT|INTERRES
   108   54  117 1    
   109   55   56 2    
   110   55   57 1    
   111   57   58 1    
   112   57   59 1    
   113   57  118 1    
   114   58  119 1    
   115   58  120 1    
   116   58  121 1    
   117   59   60 am   BACKBONE|DICT|INTERRES
   118   59  122 1    
   119   60   61 2    
   120   60   62 1    
   121   62   63 1    
   122   62   64 1    
   123   62  123 1    
   124   63  124 1    
   125   63  125 1    
   126   63  126 1    
   127   64   65 am   BACKBONE|DICT|INTERRES
   128   64  127 1    
   129   65   66 2    
@<TRIPOS>SUBSTRUCTURE
     1 UNK         1 GROUP             0       ****    0 ROOT    
