@<TRIPOS>MOLECULE
3R135
127   129    1
SMALL
USER_CHARGES


@<TRIPOS>ATOM
      1 CA        -82.1877   21.7645  -71.8958 C.3       0 UNK        -0.1998 
      2 C         -82.4596   23.2556  -72.0210 C.2       0 UNK         0.4909 
      3 O         -83.6096   23.6589  -72.2022 O.2       0 UNK        -0.5240 
      4 N         -81.4099   24.0811  -71.9291 N.am      1 UNK        -0.4739 
      5 CA        -81.4414   25.5404  -72.0786 C.3       1 UNK         0.0864 
      6 C6        -80.2555   26.2116  -71.3335 C.3       11 UNK        -0.0881 
      7 S7        -78.6085   25.5294  -71.7504 S.3       11 UNK        -0.2682 
      8 C8        -77.5207   26.5260  -70.6774 C.3       11 UNK         0.0289 
      9 C9        -77.1068   27.8943  -71.2245 C.ar      11 UNK        -0.0687 
     10 C10       -77.7629   28.5282  -72.2893 C.ar      11 UNK        -0.0823 
     11 C11       -77.3412   29.7802  -72.7460 C.ar      11 UNK        -0.0830 
     12 C12       -76.2438   30.4002  -72.1423 C.ar      11 UNK        -0.1021 
     13 C13       -75.5834   29.7865  -71.0750 C.ar      11 UNK        -0.0753 
     14 C14       -76.0254   28.5418  -70.6187 C.ar      11 UNK        -0.0933 
     15 C15       -74.3980   30.4664  -70.4073 C.3       11 UNK         0.0166 
     16 S16       -72.8419   29.6337  -70.8474 S.3       11 UNK        -0.2615 
     17 C17       -71.7630   31.0455  -71.2616 C.3       11 UNK        -0.0865 
     18 CA        -71.9147   31.5152  -72.7322 C.3       10 UNK         0.0862 
     19 C         -70.9706   32.7164  -73.0128 C.2       10 UNK         0.5551 
     20 N         -71.4564   33.9390  -72.8469 N.am      10 UNK        -0.7319 
     21 O         -69.7943   32.5480  -73.3295 O.2       10 UNK        -0.5018 
     22 N         -71.7319   30.4028  -73.6751 N.am      10 UNK        -0.4509 
     23 C         -71.9100   30.4523  -74.9991 C.2       10 UNK         0.4899 
     24 O         -72.2619   31.4639  -75.6069 O.2       10 UNK        -0.4839 
     25 CA        -71.6892   29.1500  -75.7891 C.3       9 UNK         0.0222 
     26 CB        -70.2010   28.9416  -76.1305 C.3       9 UNK        -0.1966 
     27 N         -72.2844   27.9568  -75.1710 N.am      9 UNK        -0.4218 
     28 C         -71.9251   27.3042  -74.0550 C.2       9 UNK         0.5020 
     29 O         -70.9864   27.6406  -73.3318 O.2       9 UNK        -0.5274 
     30 CA        -72.7591   26.0668  -73.6755 C.3       8 UNK         0.0270 
     31 CB        -73.9941   26.4777  -72.8569 C.3       8 UNK        -0.1976 
     32 N         -73.1826   25.2759  -74.8346 N.am      8 UNK        -0.4313 
     33 C         -72.3562   24.5981  -75.6455 C.2       8 UNK         0.5041 
     34 O         -71.1364   24.5351  -75.4882 O.2       8 UNK        -0.5577 
     35 CA        -72.9964   23.8727  -76.8395 C.3       7 UNK         0.0284 
     36 CB        -73.5701   22.5105  -76.4146 C.3       7 UNK        -0.1958 
     37 N         -74.0476   24.6851  -77.4533 N.am      7 UNK        -0.4454 
     38 C         -73.8231   25.6535  -78.3524 C.2       7 UNK         0.5089 
     39 O         -72.7161   25.9015  -78.8306 O.2       7 UNK        -0.5125 
     40 CA        -75.0329   26.5009  -78.7884 C.3       6 UNK         0.0408 
     41 CB        -75.6548   25.9283  -80.0713 C.3       6 UNK        -0.1791 
     42 N         -76.0635   26.6208  -77.7518 N.am      6 UNK        -0.4762 
     43 C         -75.8963   27.2988  -76.6040 C.2       6 UNK         0.5007 
     44 O         -74.8527   27.8831  -76.3161 O.2       6 UNK        -0.5032 
     45 CA        -77.0527   27.2707  -75.5768 C.3       5 UNK         0.0783 
     46 C46       -78.0624   28.4185  -75.8262 C.3       11 UNK        -0.0857 
     47 S47       -77.3799   30.0815  -75.5031 S.3       11 UNK        -0.2512 
     48 C48       -78.0863   30.4778  -73.8744 C.3       11 UNK         0.0225 
     49 N         -77.7397   25.9757  -75.5264 N.am      5 UNK        -0.4615 
     50 C         -77.1548   24.7809  -75.3604 C.2       4 UNK         0.5053 
     51 O         -75.9594   24.6415  -75.1021 O.2       4 UNK        -0.5105 
     52 CA        -78.0143   23.5275  -75.6119 C.3       4 UNK         0.0263 
     53 CB        -78.4834   22.9058  -74.2891 C.3       4 UNK        -0.1981 
     54 N         -79.1810   23.7564  -76.4704 N.am      4 UNK        -0.4224 
     55 C         -79.1774   24.2255  -77.7253 C.2       3 UNK         0.4895 
     56 O         -78.1508   24.5112  -78.3412 O.2       3 UNK        -0.5091 
     57 CA        -80.5457   24.4800  -78.3876 C.3       3 UNK         0.0250 
     58 CB        -81.1250   23.1844  -78.9886 C.3       3 UNK        -0.1996 
     59 N         -81.5173   25.1674  -77.5177 N.am      3 UNK        -0.4254 
     60 C         -82.0903   24.7182  -76.3916 C.2       2 UNK         0.5004 
     61 O         -81.9296   23.5806  -75.9408 O.2       2 UNK        -0.5226 
     62 CA        -82.9607   25.7169  -75.6134 C.3       2 UNK         0.0269 
     63 CB        -84.4516   25.4672  -75.8893 C.3       2 UNK        -0.1926 
     64 N         -82.7084   25.5944  -74.1769 N.am      2 UNK        -0.4687 
     65 C         -81.5690   25.9472  -73.5665 C.2       1 UNK         0.5165 
     66 O         -80.6511   26.5333  -74.1445 O.2       1 UNK        -0.5079 
     67 H67       -82.7724   21.3429  -71.0789 H         1 UNK         0.0900 
     68 H68       -82.4701   21.2556  -72.8170 H         1 UNK         0.0900 
     69 H69       -81.1352   21.5570  -71.7028 H         1 UNK         0.0900 
     70 H70       -80.4855   23.6973  -71.7903 H         1 UNK         0.2959 
     71 H71       -82.3513   25.9051  -71.5959 H         1 UNK         0.1079 
     72 H72       -80.3985   26.0802  -70.2599 H         1 UNK         0.0837 
     73 H73       -80.2670   27.2903  -71.4928 H         1 UNK         0.0837 
     74 H74       -76.6193   25.9370  -70.5007 H         1 UNK         0.0685 
     75 H75       -77.9952   26.6584  -69.7042 H         1 UNK         0.0685 
     76 H76       -78.6014   28.0560  -72.7788 H         1 UNK         0.1434 
     77 H77       -75.9096   31.3648  -72.4997 H         1 UNK         0.1329 
     78 H78       -75.5107   28.0687  -69.7933 H         1 UNK         0.1335 
     79 H79       -74.5215   30.4451  -69.3236 H         1 UNK         0.0680 
     80 H80       -74.3590   31.5191  -70.6909 H         1 UNK         0.0680 
     81 H81       -70.7323   30.7406  -71.0696 H         1 UNK         0.1032 
     82 H82       -71.9651   31.8645  -70.5684 H         1 UNK         0.1032 
     83 H83       -72.9418   31.8607  -72.8669 H         1 UNK         0.0461 
     84 H84       -70.8538   34.7312  -73.0072 H         1 UNK         0.3453 
     85 H85       -72.4166   34.0880  -72.5784 H         1 UNK         0.3453 
     86 H86       -71.4316   29.5185  -73.2757 H         1 UNK         0.2984 
     87 H87       -72.2216   29.2682  -76.7343 H         1 UNK         0.0554 
     88 H88       -69.8117   29.7889  -76.6963 H         1 UNK         0.0847 
     89 H89       -70.0560   28.0493  -76.7396 H         1 UNK         0.0847 
     90 H90       -69.5850   28.8421  -75.2365 H         1 UNK         0.0847 
     91 H91       -73.1486   27.6585  -75.6202 H         1 UNK         0.3141 
     92 H92       -72.1356   25.4242  -73.0505 H         1 UNK         0.0743 
     93 H93       -73.6965   26.9386  -71.9149 H         1 UNK         0.0784 
     94 H94       -74.6099   27.2034  -73.3881 H         1 UNK         0.0784 
     95 H95       -74.6211   25.6198  -72.6125 H         1 UNK         0.0784 
     96 H96       -74.1846   25.1996  -74.9967 H         1 UNK         0.3213 
     97 H97       -72.2128   23.6883  -77.5780 H         1 UNK         0.0855 
     98 H98       -74.3490   22.6099  -75.6583 H         1 UNK         0.0814 
     99 H99       -72.7889   21.8768  -75.9928 H         1 UNK         0.0814 
    100 H100      -73.9949   21.9771  -77.2650 H         1 UNK         0.0814 
    101 H101      -74.9810   24.5840  -77.0765 H         1 UNK         0.3105 
    102 H102      -74.6671   27.5056  -79.0115 H         1 UNK         0.0547 
    103 H103      -76.0148   24.9091  -79.9263 H         1 UNK         0.0837 
    104 H104      -74.9228   25.9012  -80.8795 H         1 UNK         0.0837 
    105 H105      -76.4930   26.5351  -80.4137 H         1 UNK         0.0837 
    106 H106      -76.9217   26.0991  -77.9027 H         1 UNK         0.3020 
    107 H107      -76.6050   27.4153  -74.5928 H         1 UNK         0.1245 
    108 H108      -78.9454   28.2827  -75.2014 H         1 UNK         0.0781 
    109 H109      -78.4290   28.3906  -76.8542 H         1 UNK         0.0781 
    110 H110      -79.1469   30.2223  -73.8525 H         1 UNK         0.0836 
    111 H111      -78.0384   31.5582  -73.7301 H         1 UNK         0.0836 
    112 H112      -78.7401   25.9955  -75.6658 H         1 UNK         0.3022 
    113 H113      -77.3732   22.8046  -76.1202 H         1 UNK         0.0747 
    114 H114      -79.2363   23.5270  -73.8053 H         1 UNK         0.0793 
    115 H115      -78.9191   21.9194  -74.4484 H         1 UNK         0.0793 
    116 H116      -77.6537   22.7866  -73.5905 H         1 UNK         0.0793 
    117 H117      -80.0947   23.5574  -76.0672 H         1 UNK         0.3047 
    118 H118      -80.3619   25.1651  -79.2171 H         1 UNK         0.0822 
    119 H119      -82.0635   23.3745  -79.5093 H         1 UNK         0.0807 
    120 H120      -81.3111   22.4243  -78.2295 H         1 UNK         0.0807 
    121 H121      -80.4342   22.7519  -79.7136 H         1 UNK         0.0807 
    122 H122      -81.7128   26.1221  -77.7875 H         1 UNK         0.2946 
    123 H123      -82.7081   26.7343  -75.9208 H         1 UNK         0.1144 
    124 H124      -85.0790   26.1823  -75.3568 H         1 UNK         0.0793 
    125 H125      -84.7547   24.4639  -75.5858 H         1 UNK         0.0793 
    126 H126      -84.6751   25.5684  -76.9522 H         1 UNK         0.0793 
    127 H127      -83.3593   25.0260  -73.6438 H         1 UNK         0.2896 
@<TRIPOS>BOND
     1    1    2 1    
     2    1   67 1    
     3    1   68 1    
     4    1   69 1    
     5    2    3 2    
     6    2    4 am   BACKBONE|DICT|INTERRES
     7    4    5 1    
     8    4   70 1    
     9    5    6 1    
    10    5   65 1    
    11    5   71 1    
    12    6    7 1    
    13    6   72 1    
    14    6   73 1    
    15    7    8 1    
    16    8    9 1    
    17    8   74 1    
    18    8   75 1    
    19    9   10 ar   
    20    9   14 ar   
    21   10   11 ar   
    22   10   76 1    
    23   11   12 ar   
    24   11   48 1    
    25   12   13 ar   
    26   12   77 1    
    27   13   14 ar   
    28   13   15 1    
    29   14   78 1    
    30   15   16 1    
    31   15   79 1    
    32   15   80 1    
    33   16   17 1    
    34   17   18 1    
    35   17   81 1    
    36   17   82 1    
    37   18   19 1    
    38   18   22 1    
    39   18   83 1    
    40   19   20 am   BACKBONE|DICT|INTERRES
    41   19   21 2    
    42   20   84 1    
    43   20   85 1    
    44   22   23 am   BACKBONE|DICT|INTERRES
    45   22   86 1    
    46   23   24 2    
    47   23   25 1    
    48   25   26 1    
    49   25   27 1    
    50   25   87 1    
    51   26   88 1    
    52   26   89 1    
    53   26   90 1    
    54   27   28 am   BACKBONE|DICT|INTERRES
    55   27   91 1    
    56   28   29 2    
    57   28   30 1    
    58   30   31 1    
    59   30   32 1    
    60   30   92 1    
    61   31   93 1    
    62   31   94 1    
    63   31   95 1    
    64   32   33 am   BACKBONE|DICT|INTERRES
    65   32   96 1    
    66   33   34 2    
    67   33   35 1    
    68   35   36 1    
    69   35   37 1    
    70   35   97 1    
    71   36   98 1    
    72   36   99 1    
    73   36  100 1    
    74   37   38 am   BACKBONE|DICT|INTERRES
    75   37  101 1    
    76   38   39 2    
    77   38   40 1    
    78   40   41 1    
    79   40   42 1    
    80   40  102 1    
    81   41  103 1    
    82   41  104 1    
    83   41  105 1    
    84   42   43 am   BACKBONE|DICT|INTERRES
    85   42  106 1    
    86   43   44 2    
    87   43   45 1    
    88   45   46 1    
    89   45   49 1    
    90   45  107 1    
    91   46   47 1    
    92   46  108 1    
    93   46  109 1    
    94   47   48 1    
    95   48  110 1    
    96   48  111 1    
    97   49   50 am   BACKBONE|DICT|INTERRES
    98   49  112 1    
    99   50   51 2    
   100   50   52 1    
   101   52   53 1    
   102   52   54 1    
   103   52  113 1    
   104   53  114 1    
   105   53  115 1    
   106   53  116 1    
   107   54   55 am   BACKBONE|DICT|INTERRES
   108   54  117 1    
   109   55   56 2    
   110   55   57 1    
   111   57   58 1    
   112   57   59 1    
   113   57  118 1    
   114   58  119 1    
   115   58  120 1    
   116   58  121 1    
   117   59   60 am   BACKBONE|DICT|INTERRES
   118   59  122 1    
   119   60   61 2    
   120   60   62 1    
   121   62   63 1    
   122   62   64 1    
   123   62  123 1    
   124   63  124 1    
   125   63  125 1    
   126   63  126 1    
   127   64   65 am   BACKBONE|DICT|INTERRES
   128   64  127 1    
   129   65   66 2    
@<TRIPOS>SUBSTRUCTURE
     1 UNK         1 GROUP             0       ****    0 ROOT    
