@<TRIPOS>MOLECULE
3R135
127   129    1
SMALL
USER_CHARGES


@<TRIPOS>ATOM
      1 CA        -81.7196   30.6401  -76.0817 C.3       0 UNK        -0.1998 
      2 C         -80.6467   30.0389  -75.1864 C.2       0 UNK         0.4909 
      3 O         -79.4999   30.4829  -75.2257 O.2       0 UNK        -0.5240 
      4 N         -81.0129   29.0343  -74.3806 N.am      1 UNK        -0.4739 
      5 CA        -80.1235   28.2961  -73.4796 C.3       1 UNK         0.0864 
      6 C6        -80.9351   27.4798  -72.4353 C.3       11 UNK        -0.0881 
      7 S7        -81.4408   28.5218  -71.0266 S.3       11 UNK        -0.2682 
      8 C8        -80.3788   27.8814  -69.6822 C.3       11 UNK         0.0289 
      9 C9        -78.9071   27.8043  -70.0751 C.ar      11 UNK        -0.0687 
     10 C10       -78.2381   26.5750  -70.0758 C.ar      11 UNK        -0.0823 
     11 C11       -76.9019   26.4865  -70.4878 C.ar      11 UNK        -0.0830 
     12 C12       -76.2375   27.6491  -70.8933 C.ar      11 UNK        -0.1021 
     13 C13       -76.8885   28.8863  -70.8717 C.ar      11 UNK        -0.0753 
     14 C14       -78.2183   28.9592  -70.4527 C.ar      11 UNK        -0.0933 
     15 C15       -76.1583   30.1502  -71.2897 C.3       11 UNK         0.0166 
     16 S16       -76.5410   30.5877  -73.0116 S.3       11 UNK        -0.2615 
     17 C17       -75.5574   32.1120  -73.2009 C.3       11 UNK        -0.0865 
     18 CA        -74.2604   31.9250  -74.0358 C.3       10 UNK         0.0862 
     19 C         -73.5460   33.2997  -74.1760 C.2       10 UNK         0.5551 
     20 N         -72.3910   33.5099  -73.5545 N.am      10 UNK        -0.7319 
     21 O         -74.0457   34.1837  -74.8683 O.2       10 UNK        -0.5018 
     22 N         -73.4088   30.8553  -73.4802 N.am      10 UNK        -0.4509 
     23 C         -72.5239   30.0610  -74.1011 C.2       10 UNK         0.4899 
     24 O         -71.8839   29.2211  -73.4652 O.2       10 UNK        -0.4839 
     25 CA        -72.2716   30.1656  -75.6210 C.3       9 UNK         0.0222 
     26 CB        -71.2060   31.2384  -75.9432 C.3       9 UNK        -0.1966 
     27 N         -71.7837   28.8593  -76.0611 N.am      9 UNK        -0.4218 
     28 C         -71.6276   28.4403  -77.3231 C.2       9 UNK         0.5020 
     29 O         -71.9344   29.1050  -78.3142 O.2       9 UNK        -0.5274 
     30 CA        -71.0078   27.0441  -77.5133 C.3       8 UNK         0.0270 
     31 CB        -69.4722   27.1283  -77.4920 C.3       8 UNK        -0.1976 
     32 N         -71.4606   26.0785  -76.5071 N.am      8 UNK        -0.4313 
     33 C         -72.6876   25.5444  -76.4943 C.2       8 UNK         0.5041 
     34 O         -73.5426   25.7831  -77.3505 O.2       8 UNK        -0.5577 
     35 CA        -73.0129   24.6064  -75.3237 C.3       7 UNK         0.0284 
     36 CB        -73.3321   25.4155  -74.0537 C.3       7 UNK        -0.1958 
     37 N         -74.1786   23.7967  -75.6702 N.am      7 UNK        -0.4454 
     38 C         -74.1822   22.4724  -75.8571 C.2       7 UNK         0.5089 
     39 O         -73.2020   21.7459  -75.6808 O.2       7 UNK        -0.5125 
     40 CA        -75.5254   21.8741  -76.3145 C.3       6 UNK         0.0408 
     41 CB        -75.5278   20.3320  -76.3853 C.3       6 UNK        -0.1791 
     42 N         -76.6371   22.3876  -75.5078 N.am      6 UNK        -0.4762 
     43 C         -76.8819   22.1695  -74.2057 C.2       6 UNK         0.5007 
     44 O         -76.2469   21.3774  -73.5090 O.2       6 UNK        -0.5032 
     45 CA        -78.0277   22.9877  -73.5668 C.3       5 UNK         0.0783 
     46 C46       -77.4747   24.1703  -72.7278 C.3       11 UNK        -0.0857 
     47 S47       -77.1181   23.7144  -71.0043 S.3       11 UNK        -0.2512 
     48 C48       -76.1425   25.1590  -70.4607 C.3       11 UNK         0.0225 
     49 N         -79.0043   23.4703  -74.5480 N.am      5 UNK        -0.4615 
     50 C         -79.8588   22.7146  -75.2497 C.2       4 UNK         0.5053 
     51 O         -79.9441   21.4917  -75.1402 O.2       4 UNK        -0.5105 
     52 CA        -80.7657   23.4531  -76.2466 C.3       4 UNK         0.0263 
     53 CB        -82.0439   23.9431  -75.5465 C.3       4 UNK        -0.1981 
     54 N         -80.0753   24.5974  -76.8475 N.am      4 UNK        -0.4224 
     55 C         -79.3682   24.5510  -77.9847 C.2       3 UNK         0.4895 
     56 O         -79.2819   23.5504  -78.6971 O.2       3 UNK        -0.5091 
     57 CA        -78.6227   25.8335  -78.4034 C.3       3 UNK         0.0250 
     58 CB        -79.5212   26.7102  -79.2906 C.3       3 UNK        -0.1996 
     59 N         -78.1295   26.6331  -77.2779 N.am      3 UNK        -0.4254 
     60 C         -77.1954   26.2293  -76.4059 C.2       2 UNK         0.5004 
     61 O         -76.6370   25.1339  -76.4534 O.2       2 UNK        -0.5226 
     62 CA        -76.8628   27.1826  -75.2462 C.3       2 UNK         0.0269 
     63 CB        -75.7794   28.1884  -75.6707 C.3       2 UNK        -0.1926 
     64 N         -77.9991   27.9036  -74.6557 N.am      2 UNK        -0.4687 
     65 C         -79.1788   27.3849  -74.2837 C.2       1 UNK         0.5165 
     66 O         -79.5407   26.2392  -74.5539 O.2       1 UNK        -0.5079 
     67 H67       -81.8359   31.7017  -75.8655 H         1 UNK         0.0900 
     68 H68       -82.6866   30.1574  -75.9415 H         1 UNK         0.0900 
     69 H69       -81.4362   30.5345  -77.1286 H         1 UNK         0.0900 
     70 H70       -81.9706   28.7144  -74.3989 H         1 UNK         0.2959 
     71 H71       -79.4954   29.0162  -72.9508 H         1 UNK         0.1079 
     72 H72       -80.3640   26.6326  -72.0507 H         1 UNK         0.0837 
     73 H73       -81.8234   27.0372  -72.8895 H         1 UNK         0.0837 
     74 H74       -80.4828   28.5278  -68.8098 H         1 UNK         0.0685 
     75 H75       -80.7504   26.8999  -69.3837 H         1 UNK         0.0685 
     76 H76       -78.7618   25.6827  -69.7617 H         1 UNK         0.1434 
     77 H77       -75.2052   27.5966  -71.2121 H         1 UNK         0.1329 
     78 H78       -78.7278   29.9133  -70.4460 H         1 UNK         0.1335 
     79 H79       -76.4436   30.9734  -70.6326 H         1 UNK         0.0680 
     80 H80       -75.0816   30.0197  -71.1752 H         1 UNK         0.0680 
     81 H81       -75.3251   32.5198  -72.2150 H         1 UNK         0.1032 
     82 H82       -76.2058   32.8502  -73.6776 H         1 UNK         0.1032 
     83 H83       -74.5749   31.6336  -75.0377 H         1 UNK         0.0461 
     84 H84       -71.9344   34.4034  -73.6504 H         1 UNK         0.3453 
     85 H85       -71.9765   32.7904  -72.9821 H         1 UNK         0.3453 
     86 H86       -73.5067   30.7304  -72.4846 H         1 UNK         0.2984 
     87 H87       -73.1994   30.3717  -76.1560 H         1 UNK         0.0554 
     88 H88       -70.8737   31.1878  -76.9799 H         1 UNK         0.0847 
     89 H89       -70.3227   31.1321  -75.3104 H         1 UNK         0.0847 
     90 H90       -71.5896   32.2461  -75.8046 H         1 UNK         0.0847 
     91 H91       -71.5262   28.2489  -75.2945 H         1 UNK         0.3141 
     92 H92       -71.3103   26.6804  -78.4982 H         1 UNK         0.0743 
     93 H93       -69.1107   27.8263  -78.2486 H         1 UNK         0.0784 
     94 H94       -69.0964   27.4717  -76.5272 H         1 UNK         0.0784 
     95 H95       -69.0185   26.1599  -77.7050 H         1 UNK         0.0784 
     96 H96       -70.8043   25.8275  -75.7809 H         1 UNK         0.3213 
     97 H97       -72.1452   23.9707  -75.1343 H         1 UNK         0.0855 
     98 H98       -72.4643   25.9858  -73.7200 H         1 UNK         0.0814 
     99 H99       -73.6235   24.7615  -73.2316 H         1 UNK         0.0814 
    100 H100      -74.1410   26.1261  -74.2178 H         1 UNK         0.0814 
    101 H101      -75.0083   24.3181  -75.9500 H         1 UNK         0.3105 
    102 H102      -75.6944   22.2458  -77.3263 H         1 UNK         0.0547 
    103 H103      -74.7896   19.9775  -77.1054 H         1 UNK         0.0837 
    104 H104      -75.2837   19.8762  -75.4257 H         1 UNK         0.0837 
    105 H105      -76.4986   19.9509  -76.7017 H         1 UNK         0.0837 
    106 H106      -77.1730   23.1252  -75.9513 H         1 UNK         0.3020 
    107 H107      -78.5684   22.3062  -72.9058 H         1 UNK         0.1245 
    108 H108      -78.2074   24.9756  -72.6725 H         1 UNK         0.0781 
    109 H109      -76.5849   24.6070  -73.1846 H         1 UNK         0.0781 
    110 H110      -75.2449   25.2188  -71.0783 H         1 UNK         0.0836 
    111 H111      -75.7998   24.9807  -69.4408 H         1 UNK         0.0836 
    112 H112      -79.0665   24.4795  -74.6556 H         1 UNK         0.3022 
    113 H113      -81.0558   22.7456  -77.0265 H         1 UNK         0.0747 
    114 H114      -82.7174   24.4320  -76.2505 H         1 UNK         0.0793 
    115 H115      -82.5890   23.1090  -75.1024 H         1 UNK         0.0793 
    116 H116      -81.8237   24.6518  -74.7469 H         1 UNK         0.0793 
    117 H117      -80.0365   25.4414  -76.2851 H         1 UNK         0.3047 
    118 H118      -77.7556   25.5263  -78.9923 H         1 UNK         0.0822 
    119 H119      -78.9785   27.5740  -79.6750 H         1 UNK         0.0807 
    120 H120      -80.3940   27.0749  -78.7474 H         1 UNK         0.0807 
    121 H121      -79.8849   26.1491  -80.1527 H         1 UNK         0.0807 
    122 H122      -78.5424   27.5447  -77.1432 H         1 UNK         0.2946 
    123 H123      -76.4488   26.5644  -74.4500 H         1 UNK         0.1144 
    124 H124      -74.9734   27.7004  -76.2189 H         1 UNK         0.0793 
    125 H125      -75.3233   28.6664  -74.8051 H         1 UNK         0.0793 
    126 H126      -76.1827   28.9699  -76.3154 H         1 UNK         0.0793 
    127 H127      -77.8341   28.8793  -74.4377 H         1 UNK         0.2896 
@<TRIPOS>BOND
     1    1    2 1    
     2    1   67 1    
     3    1   68 1    
     4    1   69 1    
     5    2    3 2    
     6    2    4 am   BACKBONE|DICT|INTERRES
     7    4    5 1    
     8    4   70 1    
     9    5    6 1    
    10    5   65 1    
    11    5   71 1    
    12    6    7 1    
    13    6   72 1    
    14    6   73 1    
    15    7    8 1    
    16    8    9 1    
    17    8   74 1    
    18    8   75 1    
    19    9   10 ar   
    20    9   14 ar   
    21   10   11 ar   
    22   10   76 1    
    23   11   12 ar   
    24   11   48 1    
    25   12   13 ar   
    26   12   77 1    
    27   13   14 ar   
    28   13   15 1    
    29   14   78 1    
    30   15   16 1    
    31   15   79 1    
    32   15   80 1    
    33   16   17 1    
    34   17   18 1    
    35   17   81 1    
    36   17   82 1    
    37   18   19 1    
    38   18   22 1    
    39   18   83 1    
    40   19   20 am   BACKBONE|DICT|INTERRES
    41   19   21 2    
    42   20   84 1    
    43   20   85 1    
    44   22   23 am   BACKBONE|DICT|INTERRES
    45   22   86 1    
    46   23   24 2    
    47   23   25 1    
    48   25   26 1    
    49   25   27 1    
    50   25   87 1    
    51   26   88 1    
    52   26   89 1    
    53   26   90 1    
    54   27   28 am   BACKBONE|DICT|INTERRES
    55   27   91 1    
    56   28   29 2    
    57   28   30 1    
    58   30   31 1    
    59   30   32 1    
    60   30   92 1    
    61   31   93 1    
    62   31   94 1    
    63   31   95 1    
    64   32   33 am   BACKBONE|DICT|INTERRES
    65   32   96 1    
    66   33   34 2    
    67   33   35 1    
    68   35   36 1    
    69   35   37 1    
    70   35   97 1    
    71   36   98 1    
    72   36   99 1    
    73   36  100 1    
    74   37   38 am   BACKBONE|DICT|INTERRES
    75   37  101 1    
    76   38   39 2    
    77   38   40 1    
    78   40   41 1    
    79   40   42 1    
    80   40  102 1    
    81   41  103 1    
    82   41  104 1    
    83   41  105 1    
    84   42   43 am   BACKBONE|DICT|INTERRES
    85   42  106 1    
    86   43   44 2    
    87   43   45 1    
    88   45   46 1    
    89   45   49 1    
    90   45  107 1    
    91   46   47 1    
    92   46  108 1    
    93   46  109 1    
    94   47   48 1    
    95   48  110 1    
    96   48  111 1    
    97   49   50 am   BACKBONE|DICT|INTERRES
    98   49  112 1    
    99   50   51 2    
   100   50   52 1    
   101   52   53 1    
   102   52   54 1    
   103   52  113 1    
   104   53  114 1    
   105   53  115 1    
   106   53  116 1    
   107   54   55 am   BACKBONE|DICT|INTERRES
   108   54  117 1    
   109   55   56 2    
   110   55   57 1    
   111   57   58 1    
   112   57   59 1    
   113   57  118 1    
   114   58  119 1    
   115   58  120 1    
   116   58  121 1    
   117   59   60 am   BACKBONE|DICT|INTERRES
   118   59  122 1    
   119   60   61 2    
   120   60   62 1    
   121   62   63 1    
   122   62   64 1    
   123   62  123 1    
   124   63  124 1    
   125   63  125 1    
   126   63  126 1    
   127   64   65 am   BACKBONE|DICT|INTERRES
   128   64  127 1    
   129   65   66 2    
@<TRIPOS>SUBSTRUCTURE
     1 UNK         1 GROUP             0       ****    0 ROOT    
