@<TRIPOS>MOLECULE
3R135
127   129    1
SMALL
USER_CHARGES


@<TRIPOS>ATOM
      1 CA        -80.8312   25.4720  -70.7933 C.3       0 UNK        -0.1998 
      2 C         -81.2630   25.9283  -72.1793 C.2       0 UNK         0.4909 
      3 O         -82.1214   25.2962  -72.7957 O.2       0 UNK        -0.5240 
      4 N         -80.6747   27.0257  -72.6685 N.am      1 UNK        -0.4739 
      5 CA        -80.8890   27.5721  -74.0111 C.3       1 UNK         0.0864 
      6 C6        -80.7293   29.1190  -74.0223 C.3       11 UNK        -0.0881 
      7 S7        -79.0245   29.7183  -73.7577 S.3       11 UNK        -0.2682 
      8 C8        -78.9855   29.9845  -71.9600 C.3       11 UNK         0.0289 
      9 C9        -77.6462   29.5599  -71.3778 C.ar      11 UNK        -0.0687 
     10 C10       -77.2575   28.2177  -71.4272 C.ar      11 UNK        -0.0823 
     11 C11       -76.0423   27.7978  -70.8707 C.ar      11 UNK        -0.0830 
     12 C12       -75.2205   28.7493  -70.2579 C.ar      11 UNK        -0.1021 
     13 C13       -75.6008   30.0933  -70.1923 C.ar      11 UNK        -0.0753 
     14 C14       -76.8114   30.4952  -70.7623 C.ar      11 UNK        -0.0933 
     15 C15       -74.7269   31.0980  -69.4567 C.3       11 UNK         0.0166 
     16 S16       -73.2515   31.5617  -70.4116 S.3       11 UNK        -0.2615 
     17 C17       -73.9503   32.6385  -71.7158 C.3       11 UNK        -0.0865 
     18 CA        -73.6842   32.1314  -73.1569 C.3       10 UNK         0.0862 
     19 C         -72.1676   32.1720  -73.5145 C.2       10 UNK         0.5551 
     20 N         -71.4832   31.0385  -73.6199 N.am      10 UNK        -0.7319 
     21 O         -71.6113   33.2507  -73.7060 O.2       10 UNK        -0.5018 
     22 N         -74.3397   30.8402  -73.4117 N.am      10 UNK        -0.4509 
     23 C         -74.5408   30.3288  -74.6320 C.2       10 UNK         0.4899 
     24 O         -74.3168   30.9377  -75.6800 O.2       10 UNK        -0.4839 
     25 CA        -75.0383   28.8752  -74.6926 C.3       9 UNK         0.0222 
     26 CB        -76.1125   28.7029  -75.7795 C.3       9 UNK        -0.1966 
     27 N         -73.9413   27.9400  -74.9585 N.am      9 UNK        -0.4218 
     28 C         -72.8702   27.7448  -74.1720 C.2       9 UNK         0.5020 
     29 O         -72.6927   28.3334  -73.1049 O.2       9 UNK        -0.5274 
     30 CA        -71.8132   26.7198  -74.6216 C.3       8 UNK         0.0270 
     31 CB        -71.7400   25.5450  -73.6301 C.3       8 UNK        -0.1976 
     32 N         -72.0404   26.2044  -75.9752 N.am      8 UNK        -0.4313 
     33 C         -71.6188   26.8169  -77.0921 C.2       8 UNK         0.5041 
     34 O         -70.9772   27.8681  -77.0865 O.2       8 UNK        -0.5577 
     35 CA        -71.9554   26.1661  -78.4487 C.3       7 UNK         0.0284 
     36 CB        -70.7242   25.4382  -79.0135 C.3       7 UNK        -0.1958 
     37 N         -73.0847   25.2334  -78.4107 N.am      7 UNK        -0.4454 
     38 C         -74.3552   25.5755  -78.1611 C.2       7 UNK         0.5089 
     39 O         -74.7146   26.7310  -77.9376 O.2       7 UNK        -0.5125 
     40 CA        -75.3988   24.4420  -78.0951 C.3       6 UNK         0.0408 
     41 CB        -74.8732   23.0631  -78.5543 C.3       6 UNK        -0.1791 
     42 N         -75.9988   24.3323  -76.7587 N.am      6 UNK        -0.4762 
     43 C         -75.3350   24.1981  -75.5985 C.2       6 UNK         0.5007 
     44 O         -74.1062   24.1454  -75.5252 O.2       6 UNK        -0.5032 
     45 CA        -76.1524   24.0986  -74.2977 C.3       5 UNK         0.0783 
     46 C46       -76.0915   25.4171  -73.4903 C.3       11 UNK        -0.0857 
     47 S47       -76.6537   25.1599  -71.7754 S.3       11 UNK        -0.2512 
     48 C48       -75.5906   26.3343  -70.8601 C.3       11 UNK         0.0225 
     49 N         -77.5371   23.6741  -74.5251 N.am      5 UNK        -0.4615 
     50 C         -77.9158   22.3951  -74.6409 C.2       4 UNK         0.5053 
     51 O         -77.1282   21.4505  -74.6962 O.2       4 UNK        -0.5105 
     52 CA        -79.4233   22.1166  -74.6688 C.3       4 UNK         0.0263 
     53 CB        -80.0348   22.3537  -73.2785 C.3       4 UNK        -0.1981 
     54 N         -80.1038   22.9628  -75.6487 N.am      4 UNK        -0.4224 
     55 C         -80.6192   22.5205  -76.8052 C.2       3 UNK         0.4895 
     56 O         -80.5797   21.3447  -77.1701 O.2       3 UNK        -0.5091 
     57 CA        -81.3120   23.5520  -77.7171 C.3       3 UNK         0.0250 
     58 CB        -82.8346   23.5135  -77.5071 C.3       3 UNK        -0.1996 
     59 N         -80.8378   24.9240  -77.5258 N.am      3 UNK        -0.4254 
     60 C         -79.6017   25.3505  -77.8179 C.2       2 UNK         0.5004 
     61 O         -78.7411   24.6417  -78.3354 O.2       2 UNK        -0.5226 
     62 CA        -79.2483   26.7953  -77.4269 C.3       2 UNK         0.0269 
     63 CB        -79.3849   27.7336  -78.6356 C.3       2 UNK        -0.1926 
     64 N         -80.0386   27.3243  -76.3076 N.am      2 UNK        -0.4687 
     65 C         -80.0156   26.8378  -75.0579 C.2       1 UNK         0.5165 
     66 O         -79.3530   25.8439  -74.7405 O.2       1 UNK        -0.5079 
     67 H67       -80.5408   24.4222  -70.8143 H         1 UNK         0.0900 
     68 H68       -79.9831   26.0467  -70.4211 H         1 UNK         0.0900 
     69 H69       -81.6549   25.5831  -70.0887 H         1 UNK         0.0900 
     70 H70       -79.9564   27.4833  -72.1303 H         1 UNK         0.2959 
     71 H71       -81.9230   27.3619  -74.2942 H         1 UNK         0.1079 
     72 H72       -81.0775   29.5264  -74.9727 H         1 UNK         0.0837 
     73 H73       -81.3865   29.5647  -73.2737 H         1 UNK         0.0837 
     74 H74       -79.1885   31.0370  -71.7567 H         1 UNK         0.0685 
     75 H75       -79.7772   29.4200  -71.4671 H         1 UNK         0.0685 
     76 H76       -77.9148   27.5077  -71.9043 H         1 UNK         0.1434 
     77 H77       -74.2845   28.4411  -69.8114 H         1 UNK         0.1329 
     78 H78       -77.1143   31.5319  -70.7071 H         1 UNK         0.1335 
     79 H79       -74.4047   30.6629  -68.5096 H         1 UNK         0.0680 
     80 H80       -75.2918   31.9953  -69.1989 H         1 UNK         0.0680 
     81 H81       -75.0241   32.7531  -71.5647 H         1 UNK         0.1032 
     82 H82       -73.5359   33.6403  -71.5878 H         1 UNK         0.1032 
     83 H83       -74.1587   32.8519  -73.8262 H         1 UNK         0.0461 
     84 H84       -70.5041   31.0679  -73.8533 H         1 UNK         0.3453 
     85 H85       -71.9363   30.1530  -73.4196 H         1 UNK         0.3453 
     86 H86       -74.4878   30.2532  -72.6013 H         1 UNK         0.2984 
     87 H87       -75.4829   28.6158  -73.7302 H         1 UNK         0.0554 
     88 H88       -76.9272   29.4125  -75.6444 H         1 UNK         0.0847 
     89 H89       -76.5410   27.7026  -75.7599 H         1 UNK         0.0847 
     90 H90       -75.7091   28.8759  -76.7776 H         1 UNK         0.0847 
     91 H91       -73.9784   27.4522  -75.8446 H         1 UNK         0.3141 
     92 H92       -70.8472   27.2287  -74.5963 H         1 UNK         0.0743 
     93 H93       -71.4605   25.8942  -72.6352 H         1 UNK         0.0784 
     94 H94       -72.6956   25.0310  -73.5318 H         1 UNK         0.0784 
     95 H95       -70.9934   24.8119  -73.9357 H         1 UNK         0.0784 
     96 H96       -72.5994   25.3581  -76.0475 H         1 UNK         0.3213 
     97 H97       -72.2177   26.9748  -79.1344 H         1 UNK         0.0855 
     98 H98       -70.4225   24.6033  -78.3797 H         1 UNK         0.0814 
     99 H99       -69.8712   26.1144  -79.0881 H         1 UNK         0.0814 
    100 H100      -70.9148   25.0509  -80.0146 H         1 UNK         0.0814 
    101 H101      -72.8722   24.2563  -78.5505 H         1 UNK         0.3105 
    102 H102      -76.1946   24.7333  -78.7802 H         1 UNK         0.0547 
    103 H103      -75.6784   22.3283  -78.5647 H         1 UNK         0.0837 
    104 H104      -74.4749   23.1073  -79.5689 H         1 UNK         0.0837 
    105 H105      -74.0902   22.6770  -77.9005 H         1 UNK         0.0837 
    106 H106      -77.0093   24.3652  -76.7342 H         1 UNK         0.3020 
    107 H107      -75.6519   23.3294  -73.7038 H         1 UNK         0.1245 
    108 H108      -76.7042   26.1925  -73.9513 H         1 UNK         0.0781 
    109 H109      -75.0725   25.8034  -73.4622 H         1 UNK         0.0781 
    110 H110      -74.5676   26.2657  -71.2337 H         1 UNK         0.0836 
    111 H111      -75.5551   26.0033  -69.8214 H         1 UNK         0.0836 
    112 H112      -78.2387   24.4106  -74.4893 H         1 UNK         0.3022 
    113 H113      -79.5597   21.0610  -74.9135 H         1 UNK         0.0747 
    114 H114      -81.1026   22.1346  -73.2713 H         1 UNK         0.0793 
    115 H115      -79.5651   21.7141  -72.5301 H         1 UNK         0.0793 
    116 H116      -79.9040   23.3856  -72.9536 H         1 UNK         0.0793 
    117 H117      -80.1495   23.9526  -75.4396 H         1 UNK         0.3047 
    118 H118      -81.1005   23.2662  -78.7499 H         1 UNK         0.0822 
    119 H119      -83.2259   22.5085  -77.6721 H         1 UNK         0.0807 
    120 H120      -83.3492   24.1767  -78.2027 H         1 UNK         0.0807 
    121 H121      -83.1102   23.8076  -76.4934 H         1 UNK         0.0807 
    122 H122      -81.4830   25.5788  -77.1087 H         1 UNK         0.2946 
    123 H123      -78.2004   26.7876  -77.1215 H         1 UNK         0.1144 
    124 H124      -79.0366   28.7390  -78.3980 H         1 UNK         0.0793 
    125 H125      -80.4180   27.8056  -78.9778 H         1 UNK         0.0793 
    126 H126      -78.7866   27.3770  -79.4755 H         1 UNK         0.0793 
    127 H127      -80.5995   28.1412  -76.5026 H         1 UNK         0.2896 
@<TRIPOS>BOND
     1    1    2 1    
     2    1   67 1    
     3    1   68 1    
     4    1   69 1    
     5    2    3 2    
     6    2    4 am   BACKBONE|DICT|INTERRES
     7    4    5 1    
     8    4   70 1    
     9    5    6 1    
    10    5   65 1    
    11    5   71 1    
    12    6    7 1    
    13    6   72 1    
    14    6   73 1    
    15    7    8 1    
    16    8    9 1    
    17    8   74 1    
    18    8   75 1    
    19    9   10 ar   
    20    9   14 ar   
    21   10   11 ar   
    22   10   76 1    
    23   11   12 ar   
    24   11   48 1    
    25   12   13 ar   
    26   12   77 1    
    27   13   14 ar   
    28   13   15 1    
    29   14   78 1    
    30   15   16 1    
    31   15   79 1    
    32   15   80 1    
    33   16   17 1    
    34   17   18 1    
    35   17   81 1    
    36   17   82 1    
    37   18   19 1    
    38   18   22 1    
    39   18   83 1    
    40   19   20 am   BACKBONE|DICT|INTERRES
    41   19   21 2    
    42   20   84 1    
    43   20   85 1    
    44   22   23 am   BACKBONE|DICT|INTERRES
    45   22   86 1    
    46   23   24 2    
    47   23   25 1    
    48   25   26 1    
    49   25   27 1    
    50   25   87 1    
    51   26   88 1    
    52   26   89 1    
    53   26   90 1    
    54   27   28 am   BACKBONE|DICT|INTERRES
    55   27   91 1    
    56   28   29 2    
    57   28   30 1    
    58   30   31 1    
    59   30   32 1    
    60   30   92 1    
    61   31   93 1    
    62   31   94 1    
    63   31   95 1    
    64   32   33 am   BACKBONE|DICT|INTERRES
    65   32   96 1    
    66   33   34 2    
    67   33   35 1    
    68   35   36 1    
    69   35   37 1    
    70   35   97 1    
    71   36   98 1    
    72   36   99 1    
    73   36  100 1    
    74   37   38 am   BACKBONE|DICT|INTERRES
    75   37  101 1    
    76   38   39 2    
    77   38   40 1    
    78   40   41 1    
    79   40   42 1    
    80   40  102 1    
    81   41  103 1    
    82   41  104 1    
    83   41  105 1    
    84   42   43 am   BACKBONE|DICT|INTERRES
    85   42  106 1    
    86   43   44 2    
    87   43   45 1    
    88   45   46 1    
    89   45   49 1    
    90   45  107 1    
    91   46   47 1    
    92   46  108 1    
    93   46  109 1    
    94   47   48 1    
    95   48  110 1    
    96   48  111 1    
    97   49   50 am   BACKBONE|DICT|INTERRES
    98   49  112 1    
    99   50   51 2    
   100   50   52 1    
   101   52   53 1    
   102   52   54 1    
   103   52  113 1    
   104   53  114 1    
   105   53  115 1    
   106   53  116 1    
   107   54   55 am   BACKBONE|DICT|INTERRES
   108   54  117 1    
   109   55   56 2    
   110   55   57 1    
   111   57   58 1    
   112   57   59 1    
   113   57  118 1    
   114   58  119 1    
   115   58  120 1    
   116   58  121 1    
   117   59   60 am   BACKBONE|DICT|INTERRES
   118   59  122 1    
   119   60   61 2    
   120   60   62 1    
   121   62   63 1    
   122   62   64 1    
   123   62  123 1    
   124   63  124 1    
   125   63  125 1    
   126   63  126 1    
   127   64   65 am   BACKBONE|DICT|INTERRES
   128   64  127 1    
   129   65   66 2    
@<TRIPOS>SUBSTRUCTURE
     1 UNK         1 GROUP             0       ****    0 ROOT    
