@<TRIPOS>MOLECULE
3R135
127   129    1
SMALL
USER_CHARGES


@<TRIPOS>ATOM
      1 CA        -76.8535   20.6613  -74.5624 C.3       0 UNK        -0.1998 
      2 C         -77.7495   21.3496  -73.5448 C.2       0 UNK         0.4909 
      3 O         -78.2402   20.6984  -72.6212 O.2       0 UNK        -0.5240 
      4 N         -77.9690   22.6589  -73.7090 N.am      1 UNK        -0.4739 
      5 CA        -78.9018   23.4506  -72.9008 C.3       1 UNK         0.0864 
      6 C6        -78.5114   24.9502  -72.8951 C.3       11 UNK        -0.0881 
      7 S7        -76.8462   25.2583  -72.2149 S.3       11 UNK        -0.2682 
      8 C8        -77.1961   26.4700  -70.8958 C.3       11 UNK         0.0289 
      9 C9        -77.1538   27.9168  -71.3827 C.ar      11 UNK        -0.0687 
     10 C10       -77.9788   28.3565  -72.4254 C.ar      11 UNK        -0.0823 
     11 C11       -77.9380   29.6856  -72.8554 C.ar      11 UNK        -0.0830 
     12 C12       -77.0834   30.5891  -72.2179 C.ar      11 UNK        -0.1021 
     13 C13       -76.2657   30.1702  -71.1655 C.ar      11 UNK        -0.0753 
     14 C14       -76.3005   28.8334  -70.7579 C.ar      11 UNK        -0.0933 
     15 C15       -75.3636   31.1658  -70.4505 C.3       11 UNK         0.0166 
     16 S16       -73.6599   31.1191  -71.0833 S.3       11 UNK        -0.2615 
     17 C17       -73.8634   31.8996  -72.7248 C.3       11 UNK        -0.0865 
     18 CA        -72.5168   32.2785  -73.3967 C.3       10 UNK         0.0862 
     19 C         -71.8542   33.5236  -72.7349 C.2       10 UNK         0.5551 
     20 N         -70.6524   33.4239  -72.1796 N.am      10 UNK        -0.7319 
     21 O         -72.4398   34.6037  -72.7392 O.2       10 UNK        -0.5018 
     22 N         -71.6559   31.0952  -73.5297 N.am      10 UNK        -0.4509 
     23 C         -70.6335   30.9486  -74.3809 C.2       10 UNK         0.4899 
     24 O         -70.2637   31.8167  -75.1714 O.2       10 UNK        -0.4839 
     25 CA        -69.9019   29.5926  -74.3470 C.3       9 UNK         0.0222 
     26 CB        -68.6447   29.6836  -73.4668 C.3       9 UNK        -0.1966 
     27 N         -70.7526   28.4946  -73.8697 N.am      9 UNK        -0.4218 
     28 C         -71.7802   27.9825  -74.5611 C.2       9 UNK         0.5020 
     29 O         -72.0735   28.3278  -75.7084 O.2       9 UNK        -0.5274 
     30 CA        -72.6453   26.9530  -73.8207 C.3       8 UNK         0.0270 
     31 CB        -73.7144   27.6629  -72.9730 C.3       8 UNK        -0.1976 
     32 N         -73.3085   26.0720  -74.7796 N.am      8 UNK        -0.4313 
     33 C         -72.8204   24.8925  -75.1874 C.2       8 UNK         0.5041 
     34 O         -71.7939   24.3854  -74.7314 O.2       8 UNK        -0.5577 
     35 CA        -73.5950   24.1345  -76.2827 C.3       7 UNK         0.0284 
     36 CB        -74.4757   23.0444  -75.6556 C.3       7 UNK        -0.1958 
     37 N         -74.4269   25.0085  -77.1115 N.am      7 UNK        -0.4454 
     38 C         -73.9428   25.8698  -78.0193 C.2       7 UNK         0.5089 
     39 O         -72.7557   25.9139  -78.3441 O.2       7 UNK        -0.5125 
     40 CA        -74.9305   26.8533  -78.6827 C.3       6 UNK         0.0408 
     41 CB        -75.1677   26.4641  -80.1511 C.3       6 UNK        -0.1791 
     42 N         -76.2295   26.9808  -78.0128 N.am      6 UNK        -0.4762 
     43 C         -76.4322   27.3886  -76.7499 C.2       6 UNK         0.5007 
     44 O         -75.5222   27.7047  -75.9848 O.2       6 UNK        -0.5032 
     45 CA        -77.8885   27.3506  -76.2344 C.3       5 UNK         0.0783 
     46 C46       -78.6339   28.6937  -76.4429 C.3       11 UNK        -0.0857 
     47 S47       -77.9132   30.1327  -75.5784 S.3       11 UNK        -0.2512 
     48 C48       -78.8216   30.1572  -74.0000 C.3       11 UNK         0.0225 
     49 N         -78.6638   26.2511  -76.8278 N.am      5 UNK        -0.4615 
     50 C         -78.3777   24.9439  -76.7681 C.2       4 UNK         0.5053 
     51 O         -77.4163   24.4800  -76.1519 O.2       4 UNK        -0.5105 
     52 CA        -79.3302   24.0143  -77.5390 C.3       4 UNK         0.0263 
     53 CB        -78.8946   22.5380  -77.4884 C.3       4 UNK        -0.1981 
     54 N         -80.7070   24.1351  -77.0509 N.am      4 UNK        -0.4224 
     55 C         -81.5862   25.0650  -77.4545 C.2       3 UNK         0.4895 
     56 O         -81.2995   25.9560  -78.2557 O.2       3 UNK        -0.5091 
     57 CA        -83.0160   25.0105  -76.8820 C.3       3 UNK         0.0250 
     58 CB        -83.9510   24.2739  -77.8547 C.3       3 UNK        -0.1996 
     59 N         -83.0946   24.3736  -75.5658 N.am      3 UNK        -0.4254 
     60 C         -82.6956   24.9482  -74.4237 C.2       2 UNK         0.5004 
     61 O         -82.2830   26.1068  -74.3496 O.2       2 UNK        -0.5226 
     62 CA        -82.6975   24.0790  -73.1488 C.3       2 UNK         0.0269 
     63 CB        -83.4808   22.7509  -73.2743 C.3       2 UNK        -0.1926 
     64 N         -81.3178   23.8416  -72.7024 N.am      2 UNK        -0.4687 
     65 C         -80.3407   23.2839  -73.4350 C.2       1 UNK         0.5165 
     66 O         -80.5438   22.7281  -74.5186 O.2       1 UNK        -0.5079 
     67 H67       -77.2343   19.6659  -74.7897 H         1 UNK         0.0900 
     68 H68       -76.8079   21.2200  -75.4961 H         1 UNK         0.0900 
     69 H69       -75.8429   20.5597  -74.1681 H         1 UNK         0.0900 
     70 H70       -77.5744   23.1467  -74.5058 H         1 UNK         0.2959 
     71 H71       -78.8852   23.0824  -71.8724 H         1 UNK         0.1079 
     72 H72       -78.5476   25.3572  -73.9037 H         1 UNK         0.0837 
     73 H73       -79.2377   25.5254  -72.3199 H         1 UNK         0.0837 
     74 H74       -78.1622   26.2658  -70.4331 H         1 UNK         0.0685 
     75 H75       -76.4539   26.3187  -70.1106 H         1 UNK         0.0685 
     76 H76       -78.6538   27.6682  -72.9094 H         1 UNK         0.1434 
     77 H77       -77.0561   31.6205  -72.5420 H         1 UNK         0.1329 
     78 H78       -75.6644   28.5112  -69.9448 H         1 UNK         0.1335 
     79 H79       -75.7601   32.1787  -70.5374 H         1 UNK         0.0680 
     80 H80       -75.3461   30.9391  -69.3835 H         1 UNK         0.0680 
     81 H81       -74.4026   31.2002  -73.3663 H         1 UNK         0.1032 
     82 H82       -74.5095   32.7751  -72.6358 H         1 UNK         0.1032 
     83 H83       -72.7569   32.5973  -74.4129 H         1 UNK         0.0461 
     84 H84       -70.1680   32.5415  -72.1740 H         1 UNK         0.3453 
     85 H85       -70.2312   34.2372  -71.7592 H         1 UNK         0.3453 
     86 H86       -71.8704   30.3382  -72.8984 H         1 UNK         0.2984 
     87 H87       -69.5873   29.3619  -75.3671 H         1 UNK         0.0554 
     88 H88       -67.9832   30.4791  -73.8134 H         1 UNK         0.0847 
     89 H89       -68.0723   28.7561  -73.4945 H         1 UNK         0.0847 
     90 H90       -68.8910   29.8960  -72.4257 H         1 UNK         0.0847 
     91 H91       -70.5711   28.1492  -72.9377 H         1 UNK         0.3141 
     92 H92       -72.0097   26.3665  -73.1538 H         1 UNK         0.0743 
     93 H93       -74.3576   28.3046  -73.5775 H         1 UNK         0.0784 
     94 H94       -74.3525   26.9443  -72.4599 H         1 UNK         0.0784 
     95 H95       -73.2588   28.2892  -72.2061 H         1 UNK         0.0784 
     96 H96       -74.1062   26.4747  -75.2639 H         1 UNK         0.3213 
     97 H97       -72.8609   23.6486  -76.9292 H         1 UNK         0.0855 
     98 H98       -75.2080   23.4663  -74.9659 H         1 UNK         0.0814 
     99 H99       -73.8721   22.3312  -75.0926 H         1 UNK         0.0814 
    100 H100      -75.0120   22.4848  -76.4215 H         1 UNK         0.0814 
    101 H101      -75.4189   25.0211  -76.9034 H         1 UNK         0.3105 
    102 H102      -74.4581   27.8376  -78.6617 H         1 UNK         0.0547 
    103 H103      -74.2247   26.3977  -80.6957 H         1 UNK         0.0837 
    104 H104      -75.6610   25.4951  -80.2368 H         1 UNK         0.0837 
    105 H105      -75.7822   27.2030  -80.6656 H         1 UNK         0.0837 
    106 H106      -77.0400   26.7199  -78.5554 H         1 UNK         0.3020 
    107 H107      -77.8247   27.1603  -75.1626 H         1 UNK         0.1245 
    108 H108      -79.6760   28.5913  -76.1363 H         1 UNK         0.0781 
    109 H109      -78.6710   28.9359  -77.5068 H         1 UNK         0.0781 
    110 H110      -79.7284   29.5539  -74.0590 H         1 UNK         0.0836 
    111 H111      -79.1556   31.1776  -73.8062 H         1 UNK         0.0836 
    112 H112      -79.4928   26.5139  -77.3501 H         1 UNK         0.3022 
    113 H113      -79.2946   24.3218  -78.5864 H         1 UNK         0.0747 
    114 H114      -79.5438   21.9139  -78.1023 H         1 UNK         0.0793 
    115 H115      -77.8782   22.4159  -77.8653 H         1 UNK         0.0793 
    116 H116      -78.9157   22.1417  -76.4742 H         1 UNK         0.0793 
    117 H117      -80.9654   23.5005  -76.3007 H         1 UNK         0.3047 
    118 H118      -83.3685   26.0402  -76.7878 H         1 UNK         0.0822 
    119 H119      -84.9831   24.2919  -77.5040 H         1 UNK         0.0807 
    120 H120      -83.6582   23.2314  -77.9867 H         1 UNK         0.0807 
    121 H121      -83.9375   24.7431  -78.8396 H         1 UNK         0.0807 
    122 H122      -83.3940   23.4094  -75.5394 H         1 UNK         0.2946 
    123 H123      -83.1845   24.6773  -72.3766 H         1 UNK         0.1144 
    124 H124      -83.5067   22.2260  -72.3194 H         1 UNK         0.0793 
    125 H125      -83.0455   22.0703  -74.0063 H         1 UNK         0.0793 
    126 H126      -84.5168   22.9321  -73.5640 H         1 UNK         0.0793 
    127 H127      -81.0684   24.2847  -71.8290 H         1 UNK         0.2896 
@<TRIPOS>BOND
     1    1    2 1    
     2    1   67 1    
     3    1   68 1    
     4    1   69 1    
     5    2    3 2    
     6    2    4 am   BACKBONE|DICT|INTERRES
     7    4    5 1    
     8    4   70 1    
     9    5    6 1    
    10    5   65 1    
    11    5   71 1    
    12    6    7 1    
    13    6   72 1    
    14    6   73 1    
    15    7    8 1    
    16    8    9 1    
    17    8   74 1    
    18    8   75 1    
    19    9   10 ar   
    20    9   14 ar   
    21   10   11 ar   
    22   10   76 1    
    23   11   12 ar   
    24   11   48 1    
    25   12   13 ar   
    26   12   77 1    
    27   13   14 ar   
    28   13   15 1    
    29   14   78 1    
    30   15   16 1    
    31   15   79 1    
    32   15   80 1    
    33   16   17 1    
    34   17   18 1    
    35   17   81 1    
    36   17   82 1    
    37   18   19 1    
    38   18   22 1    
    39   18   83 1    
    40   19   20 am   BACKBONE|DICT|INTERRES
    41   19   21 2    
    42   20   84 1    
    43   20   85 1    
    44   22   23 am   BACKBONE|DICT|INTERRES
    45   22   86 1    
    46   23   24 2    
    47   23   25 1    
    48   25   26 1    
    49   25   27 1    
    50   25   87 1    
    51   26   88 1    
    52   26   89 1    
    53   26   90 1    
    54   27   28 am   BACKBONE|DICT|INTERRES
    55   27   91 1    
    56   28   29 2    
    57   28   30 1    
    58   30   31 1    
    59   30   32 1    
    60   30   92 1    
    61   31   93 1    
    62   31   94 1    
    63   31   95 1    
    64   32   33 am   BACKBONE|DICT|INTERRES
    65   32   96 1    
    66   33   34 2    
    67   33   35 1    
    68   35   36 1    
    69   35   37 1    
    70   35   97 1    
    71   36   98 1    
    72   36   99 1    
    73   36  100 1    
    74   37   38 am   BACKBONE|DICT|INTERRES
    75   37  101 1    
    76   38   39 2    
    77   38   40 1    
    78   40   41 1    
    79   40   42 1    
    80   40  102 1    
    81   41  103 1    
    82   41  104 1    
    83   41  105 1    
    84   42   43 am   BACKBONE|DICT|INTERRES
    85   42  106 1    
    86   43   44 2    
    87   43   45 1    
    88   45   46 1    
    89   45   49 1    
    90   45  107 1    
    91   46   47 1    
    92   46  108 1    
    93   46  109 1    
    94   47   48 1    
    95   48  110 1    
    96   48  111 1    
    97   49   50 am   BACKBONE|DICT|INTERRES
    98   49  112 1    
    99   50   51 2    
   100   50   52 1    
   101   52   53 1    
   102   52   54 1    
   103   52  113 1    
   104   53  114 1    
   105   53  115 1    
   106   53  116 1    
   107   54   55 am   BACKBONE|DICT|INTERRES
   108   54  117 1    
   109   55   56 2    
   110   55   57 1    
   111   57   58 1    
   112   57   59 1    
   113   57  118 1    
   114   58  119 1    
   115   58  120 1    
   116   58  121 1    
   117   59   60 am   BACKBONE|DICT|INTERRES
   118   59  122 1    
   119   60   61 2    
   120   60   62 1    
   121   62   63 1    
   122   62   64 1    
   123   62  123 1    
   124   63  124 1    
   125   63  125 1    
   126   63  126 1    
   127   64   65 am   BACKBONE|DICT|INTERRES
   128   64  127 1    
   129   65   66 2    
@<TRIPOS>SUBSTRUCTURE
     1 UNK         1 GROUP             0       ****    0 ROOT    
