@<TRIPOS>MOLECULE
3R135
127   129    1
SMALL
USER_CHARGES


@<TRIPOS>ATOM
      1 CA        -83.7721   27.3062  -72.1848 C.3       0 UNK        -0.1998 
      2 C         -82.6720   27.3108  -73.2343 C.2       0 UNK         0.4909 
      3 O         -81.8822   26.3701  -73.2931 O.2       0 UNK        -0.5240 
      4 N         -82.6252   28.3551  -74.0750 N.am      1 UNK        -0.4739 
      5 CA        -81.6094   28.6030  -75.1163 C.3       1 UNK         0.0864 
      6 C6        -80.1992   28.8926  -74.5289 C.3       11 UNK        -0.0881 
      7 S7        -80.1518   30.4154  -73.5250 S.3       11 UNK        -0.2682 
      8 C8        -80.1694   29.7735  -71.8198 C.3       11 UNK         0.0289 
      9 C9        -78.9076   29.0014  -71.4552 C.ar      11 UNK        -0.0687 
     10 C10       -78.9845   27.6472  -71.1130 C.ar      11 UNK        -0.0823 
     11 C11       -77.8407   26.9491  -70.7115 C.ar      11 UNK        -0.0830 
     12 C12       -76.6100   27.6091  -70.6738 C.ar      11 UNK        -0.1021 
     13 C13       -76.5183   28.9585  -71.0265 C.ar      11 UNK        -0.0753 
     14 C14       -77.6699   29.6513  -71.4117 C.ar      11 UNK        -0.0933 
     15 C15       -75.1737   29.6641  -70.9770 C.3       11 UNK         0.0166 
     16 S16       -74.2017   29.2921  -72.4643 S.3       11 UNK        -0.2615 
     17 C17       -72.5961   30.0595  -72.0484 C.3       11 UNK        -0.0865 
     18 CA        -72.1066   31.0805  -73.1101 C.3       10 UNK         0.0862 
     19 C         -70.7057   31.6305  -72.7084 C.2       10 UNK         0.5551 
     20 N         -69.6218   31.2294  -73.3643 N.am      10 UNK        -0.7319 
     21 O         -70.6056   32.4299  -71.7811 O.2       10 UNK        -0.5018 
     22 N         -72.1753   30.5050  -74.4591 N.am      10 UNK        -0.4509 
     23 C         -71.9584   31.1369  -75.6183 C.2       10 UNK         0.4899 
     24 O         -71.7638   32.3494  -75.7138 O.2       10 UNK        -0.4839 
     25 CA        -71.9612   30.2523  -76.8830 C.3       9 UNK         0.0222 
     26 CB        -70.9894   30.7667  -77.9658 C.3       9 UNK        -0.1966 
     27 N         -71.7291   28.8264  -76.5998 N.am      9 UNK        -0.4218 
     28 C         -70.6373   28.2706  -76.0425 C.2       9 UNK         0.5020 
     29 O         -69.6375   28.9146  -75.7191 O.2       9 UNK        -0.5274 
     30 CA        -70.6751   26.7610  -75.7239 C.3       8 UNK         0.0270 
     31 CB        -70.6712   26.5393  -74.2011 C.3       8 UNK        -0.1976 
     32 N         -71.8332   26.0676  -76.2911 N.am      8 UNK        -0.4313 
     33 C         -71.9985   25.7800  -77.5899 C.2       8 UNK         0.5041 
     34 O         -71.1308   25.9648  -78.4438 O.2       8 UNK        -0.5577 
     35 CA        -73.3721   25.2303  -78.0213 C.3       7 UNK         0.0284 
     36 CB        -73.2816   23.7214  -78.2978 C.3       7 UNK        -0.1958 
     37 N         -74.4546   25.4921  -77.0619 N.am      7 UNK        -0.4454 
     38 C         -74.8957   26.7135  -76.7148 C.2       7 UNK         0.5089 
     39 O         -74.4213   27.7547  -77.1703 O.2       7 UNK        -0.5125 
     40 CA        -76.0211   26.8079  -75.6671 C.3       6 UNK         0.0408 
     41 CB        -77.3580   27.1006  -76.3587 C.3       6 UNK        -0.1791 
     42 N         -76.1683   25.6101  -74.8381 N.am      6 UNK        -0.4762 
     43 C         -75.2517   25.1623  -73.9658 C.2       6 UNK         0.5007 
     44 O         -74.1787   25.7312  -73.7594 O.2       6 UNK        -0.5032 
     45 CA        -75.5363   23.8181  -73.2585 C.3       5 UNK         0.0783 
     46 C46       -76.0465   24.0231  -71.8076 C.3       11 UNK        -0.0857 
     47 S47       -77.8401   24.3609  -71.6964 S.3       11 UNK        -0.2512 
     48 C48       -77.9472   25.4945  -70.2812 C.3       11 UNK         0.0225 
     49 N         -76.4130   22.9232  -74.0253 N.am      5 UNK        -0.4615 
     50 C         -76.1857   22.4663  -75.2624 C.2       4 UNK         0.5053 
     51 O         -75.1461   22.6817  -75.8836 O.2       4 UNK        -0.5105 
     52 CA        -77.3175   21.6758  -75.9442 C.3       4 UNK         0.0263 
     53 CB        -77.0409   20.1666  -75.8525 C.3       4 UNK        -0.1981 
     54 N         -78.6705   21.9505  -75.4382 N.am      4 UNK        -0.4224 
     55 C         -79.2822   23.1447  -75.4394 C.2       3 UNK         0.4895 
     56 O         -78.7316   24.1973  -75.7688 O.2       3 UNK        -0.5091 
     57 CA        -80.7429   23.1530  -74.9544 C.3       3 UNK         0.0250 
     58 CB        -80.8122   23.2305  -73.4222 C.3       3 UNK        -0.1996 
     59 N         -81.5111   24.2638  -75.5220 N.am      3 UNK        -0.4254 
     60 C         -81.9166   24.3264  -76.7997 C.2       2 UNK         0.5004 
     61 O         -81.7094   23.4312  -77.6210 O.2       2 UNK        -0.5226 
     62 CA        -82.7181   25.5649  -77.2470 C.3       2 UNK         0.0269 
     63 CB        -84.2023   25.2057  -77.4321 C.3       2 UNK        -0.1926 
     64 N         -82.6205   26.6937  -76.3195 N.am      2 UNK        -0.4687 
     65 C         -81.5700   27.5211  -76.2266 C.2       1 UNK         0.5165 
     66 O         -80.6096   27.4658  -76.9950 O.2       1 UNK        -0.5079 
     67 H67       -84.4049   26.4278  -72.3088 H         1 UNK         0.0900 
     68 H68       -84.4028   28.1926  -72.2500 H         1 UNK         0.0900 
     69 H69       -83.3351   27.2732  -71.1871 H         1 UNK         0.0900 
     70 H70       -83.3193   29.0844  -73.9827 H         1 UNK         0.2959 
     71 H71       -81.9339   29.5068  -75.6347 H         1 UNK         0.1079 
     72 H72       -79.8316   28.0423  -73.9524 H         1 UNK         0.0837 
     73 H73       -79.4753   29.0484  -75.3300 H         1 UNK         0.0837 
     74 H74       -81.0587   29.1606  -71.6739 H         1 UNK         0.0685 
     75 H75       -80.2710   30.6167  -71.1353 H         1 UNK         0.0685 
     76 H76       -79.9383   27.1371  -71.1433 H         1 UNK         0.1434 
     77 H77       -75.7203   27.0761  -70.3674 H         1 UNK         0.1329 
     78 H78       -77.6065   30.6982  -71.6759 H         1 UNK         0.1335 
     79 H79       -75.3059   30.7437  -70.8897 H         1 UNK         0.0680 
     80 H80       -74.6246   29.3423  -70.0906 H         1 UNK         0.0680 
     81 H81       -72.6640   30.5419  -71.0713 H         1 UNK         0.1032 
     82 H82       -71.8684   29.2535  -71.9326 H         1 UNK         0.1032 
     83 H83       -72.7906   31.9310  -73.0983 H         1 UNK         0.0461 
     84 H84       -68.7202   31.5911  -73.0972 H         1 UNK         0.3453 
     85 H85       -69.6961   30.5688  -74.1267 H         1 UNK         0.3453 
     86 H86       -72.3628   29.5148  -74.4932 H         1 UNK         0.2984 
     87 H87       -72.9712   30.3143  -77.2904 H         1 UNK         0.0554 
     88 H88       -71.0091   30.1308  -78.8508 H         1 UNK         0.0847 
     89 H89       -69.9617   30.8062  -77.6034 H         1 UNK         0.0847 
     90 H90       -71.2579   31.7739  -78.2867 H         1 UNK         0.0847 
     91 H91       -72.5223   28.2256  -76.8076 H         1 UNK         0.3141 
     92 H92       -69.7680   26.3179  -76.1400 H         1 UNK         0.0743 
     93 H93       -69.8012   27.0067  -73.7374 H         1 UNK         0.0784 
     94 H94       -71.5592   26.9620  -73.7284 H         1 UNK         0.0784 
     95 H95       -70.6351   25.4779  -73.9546 H         1 UNK         0.0784 
     96 H96       -72.5988   25.8731  -75.6579 H         1 UNK         0.3213 
     97 H97       -73.6380   25.7312  -78.9545 H         1 UNK         0.0855 
     98 H98       -72.5437   23.5107  -79.0731 H         1 UNK         0.0814 
     99 H99       -74.2352   23.3198  -78.6410 H         1 UNK         0.0814 
    100 H100      -72.9836   23.1664  -77.4075 H         1 UNK         0.0814 
    101 H101      -74.8736   24.6801  -76.6210 H         1 UNK         0.3105 
    102 H102      -75.7883   27.6422  -75.0018 H         1 UNK         0.0547 
    103 H103      -77.5995   26.3471  -77.1097 H         1 UNK         0.0837 
    104 H104      -78.1758   27.1168  -75.6400 H         1 UNK         0.0837 
    105 H105      -77.3393   28.0688  -76.8602 H         1 UNK         0.0837 
    106 H106      -77.0181   25.0698  -74.9741 H         1 UNK         0.3020 
    107 H107      -74.5674   23.3174  -73.1947 H         1 UNK         0.1245 
    108 H108      -75.4830   24.8107  -71.3039 H         1 UNK         0.0781 
    109 H109      -75.8557   23.1169  -71.2308 H         1 UNK         0.0781 
    110 H110      -77.1811   25.2491  -69.5440 H         1 UNK         0.0836 
    111 H111      -78.9038   25.3337  -69.7817 H         1 UNK         0.0836 
    112 H112      -77.3063   22.7254  -73.5982 H         1 UNK         0.3022 
    113 H113      -77.3071   21.9598  -76.9985 H         1 UNK         0.0747 
    114 H114      -77.7657   19.5929  -76.4306 H         1 UNK         0.0793 
    115 H115      -76.0528   19.9255  -76.2477 H         1 UNK         0.0793 
    116 H116      -77.0746   19.8121  -74.8215 H         1 UNK         0.0793 
    117 H117      -79.1957   21.1465  -75.1248 H         1 UNK         0.3047 
    118 H118      -81.2136   22.2200  -75.2722 H         1 UNK         0.0822 
    119 H119      -80.2506   22.4208  -72.9546 H         1 UNK         0.0807 
    120 H120      -81.8407   23.1593  -73.0681 H         1 UNK         0.0807 
    121 H121      -80.4014   24.1704  -73.0539 H         1 UNK         0.0807 
    122 H122      -81.6799   25.0551  -74.9095 H         1 UNK         0.2946 
    123 H123      -82.3169   25.8727  -78.2157 H         1 UNK         0.1144 
    124 H124      -84.3210   24.3892  -78.1460 H         1 UNK         0.0793 
    125 H125      -84.7713   26.0529  -77.8156 H         1 UNK         0.0793 
    126 H126      -84.6609   24.8879  -76.4948 H         1 UNK         0.0793 
    127 H127      -83.3703   26.8065  -75.6526 H         1 UNK         0.2896 
@<TRIPOS>BOND
     1    1    2 1    
     2    1   67 1    
     3    1   68 1    
     4    1   69 1    
     5    2    3 2    
     6    2    4 am   BACKBONE|DICT|INTERRES
     7    4    5 1    
     8    4   70 1    
     9    5    6 1    
    10    5   65 1    
    11    5   71 1    
    12    6    7 1    
    13    6   72 1    
    14    6   73 1    
    15    7    8 1    
    16    8    9 1    
    17    8   74 1    
    18    8   75 1    
    19    9   10 ar   
    20    9   14 ar   
    21   10   11 ar   
    22   10   76 1    
    23   11   12 ar   
    24   11   48 1    
    25   12   13 ar   
    26   12   77 1    
    27   13   14 ar   
    28   13   15 1    
    29   14   78 1    
    30   15   16 1    
    31   15   79 1    
    32   15   80 1    
    33   16   17 1    
    34   17   18 1    
    35   17   81 1    
    36   17   82 1    
    37   18   19 1    
    38   18   22 1    
    39   18   83 1    
    40   19   20 am   BACKBONE|DICT|INTERRES
    41   19   21 2    
    42   20   84 1    
    43   20   85 1    
    44   22   23 am   BACKBONE|DICT|INTERRES
    45   22   86 1    
    46   23   24 2    
    47   23   25 1    
    48   25   26 1    
    49   25   27 1    
    50   25   87 1    
    51   26   88 1    
    52   26   89 1    
    53   26   90 1    
    54   27   28 am   BACKBONE|DICT|INTERRES
    55   27   91 1    
    56   28   29 2    
    57   28   30 1    
    58   30   31 1    
    59   30   32 1    
    60   30   92 1    
    61   31   93 1    
    62   31   94 1    
    63   31   95 1    
    64   32   33 am   BACKBONE|DICT|INTERRES
    65   32   96 1    
    66   33   34 2    
    67   33   35 1    
    68   35   36 1    
    69   35   37 1    
    70   35   97 1    
    71   36   98 1    
    72   36   99 1    
    73   36  100 1    
    74   37   38 am   BACKBONE|DICT|INTERRES
    75   37  101 1    
    76   38   39 2    
    77   38   40 1    
    78   40   41 1    
    79   40   42 1    
    80   40  102 1    
    81   41  103 1    
    82   41  104 1    
    83   41  105 1    
    84   42   43 am   BACKBONE|DICT|INTERRES
    85   42  106 1    
    86   43   44 2    
    87   43   45 1    
    88   45   46 1    
    89   45   49 1    
    90   45  107 1    
    91   46   47 1    
    92   46  108 1    
    93   46  109 1    
    94   47   48 1    
    95   48  110 1    
    96   48  111 1    
    97   49   50 am   BACKBONE|DICT|INTERRES
    98   49  112 1    
    99   50   51 2    
   100   50   52 1    
   101   52   53 1    
   102   52   54 1    
   103   52  113 1    
   104   53  114 1    
   105   53  115 1    
   106   53  116 1    
   107   54   55 am   BACKBONE|DICT|INTERRES
   108   54  117 1    
   109   55   56 2    
   110   55   57 1    
   111   57   58 1    
   112   57   59 1    
   113   57  118 1    
   114   58  119 1    
   115   58  120 1    
   116   58  121 1    
   117   59   60 am   BACKBONE|DICT|INTERRES
   118   59  122 1    
   119   60   61 2    
   120   60   62 1    
   121   62   63 1    
   122   62   64 1    
   123   62  123 1    
   124   63  124 1    
   125   63  125 1    
   126   63  126 1    
   127   64   65 am   BACKBONE|DICT|INTERRES
   128   64  127 1    
   129   65   66 2    
@<TRIPOS>SUBSTRUCTURE
     1 UNK         1 GROUP             0       ****    0 ROOT    
