@<TRIPOS>MOLECULE
3R135
127   129    1
SMALL
USER_CHARGES


@<TRIPOS>ATOM
      1 CA        -77.3305   31.5116  -76.1680 C.3       0 UNK        -0.1998 
      2 C         -77.3703   30.1793  -75.4349 C.2       0 UNK         0.4909 
      3 O         -76.3192   29.6609  -75.0636 O.2       0 UNK        -0.5240 
      4 N         -78.5763   29.6373  -75.2204 N.am      1 UNK        -0.4739 
      5 CA        -78.8395   28.3867  -74.4965 C.3       1 UNK         0.0864 
      6 C6        -80.3477   28.3012  -74.1308 C.3       11 UNK        -0.0881 
      7 S7        -80.8658   26.8038  -73.2187 S.3       11 UNK        -0.2682 
      8 C8        -80.8542   27.3817  -71.4942 C.3       11 UNK         0.0289 
      9 C9        -79.4464   27.6852  -71.0026 C.ar      11 UNK        -0.0687 
     10 C10       -78.5633   26.6426  -70.7111 C.ar      11 UNK        -0.0823 
     11 C11       -77.2787   26.9101  -70.2329 C.ar      11 UNK        -0.0830 
     12 C12       -76.8841   28.2361  -70.0334 C.ar      11 UNK        -0.1021 
     13 C13       -77.7469   29.2944  -70.3490 C.ar      11 UNK        -0.0753 
     14 C14       -79.0300   29.0072  -70.8248 C.ar      11 UNK        -0.0933 
     15 C15       -77.3345   30.7557  -70.1741 C.3       11 UNK         0.0166 
     16 S16       -75.5648   31.0964  -70.4617 S.3       11 UNK        -0.2615 
     17 C17       -75.3454   30.4988  -72.1736 C.3       11 UNK        -0.0865 
     18 CA        -73.8531   30.3877  -72.5806 C.3       10 UNK         0.0862 
     19 C         -73.1542   29.1160  -72.0100 C.2       10 UNK         0.5551 
     20 N         -72.9689   29.0472  -70.6993 N.am      10 UNK        -0.7319 
     21 O         -72.7760   28.1975  -72.7349 O.2       10 UNK        -0.5018 
     22 N         -73.6963   30.5136  -74.0377 N.am      10 UNK        -0.4509 
     23 C         -72.5374   30.8376  -74.6284 C.2       10 UNK         0.4899 
     24 O         -71.5358   31.1839  -73.9990 O.2       10 UNK        -0.4839 
     25 CA        -72.4582   30.7889  -76.1626 C.3       9 UNK         0.0222 
     26 CB        -71.1224   30.1918  -76.6514 C.3       9 UNK        -0.1966 
     27 N         -73.5659   30.0553  -76.7772 N.am      9 UNK        -0.4218 
     28 C         -74.0840   30.3375  -77.9771 C.2       9 UNK         0.5020 
     29 O         -73.7548   31.3178  -78.6485 O.2       9 UNK        -0.5274 
     30 CA        -75.0994   29.3265  -78.5449 C.3       8 UNK         0.0270 
     31 CB        -75.6779   29.7796  -79.9010 C.3       8 UNK        -0.1976 
     32 N         -74.5008   27.9971  -78.6987 N.am      8 UNK        -0.4313 
     33 C         -74.3145   27.1225  -77.7032 C.2       8 UNK         0.5041 
     34 O         -74.6171   27.3429  -76.5284 O.2       8 UNK        -0.5577 
     35 CA        -73.6665   25.7869  -78.0652 C.3       7 UNK         0.0284 
     36 CB        -72.1404   25.8464  -77.8764 C.3       7 UNK        -0.1958 
     37 N         -74.2425   24.7703  -77.1926 N.am      7 UNK        -0.4454 
     38 C         -74.3714   23.4742  -77.4881 C.2       7 UNK         0.5089 
     39 O         -73.9399   22.9768  -78.5295 O.2       7 UNK        -0.5125 
     40 CA        -75.1375   22.5749  -76.4972 C.3       6 UNK         0.0408 
     41 CB        -74.3423   21.2983  -76.1514 C.3       6 UNK        -0.1791 
     42 N         -75.6348   23.2369  -75.2807 N.am      6 UNK        -0.4762 
     43 C         -74.9331   23.6937  -74.2292 C.2       6 UNK         0.5007 
     44 O         -73.7030   23.7171  -74.1950 O.2       6 UNK        -0.5032 
     45 CA        -75.7311   24.1783  -72.9949 C.3       5 UNK         0.0783 
     46 C46       -75.4208   25.6556  -72.6149 C.3       11 UNK        -0.0857 
     47 S47       -74.7964   25.8085  -70.9075 S.3       11 UNK        -0.2512 
     48 C48       -76.3282   25.7616  -69.9190 C.3       11 UNK         0.0225 
     49 N         -77.1750   23.9582  -73.1607 N.am      5 UNK        -0.4615 
     50 C         -77.8149   22.8366  -72.8047 C.2       4 UNK         0.5053 
     51 O         -77.2602   21.8990  -72.2313 O.2       4 UNK        -0.5105 
     52 CA        -79.3028   22.6971  -73.1598 C.3       4 UNK         0.0263 
     53 CB        -80.2086   23.1102  -71.9876 C.3       4 UNK        -0.1981 
     54 N         -79.6982   23.4224  -74.3743 N.am      4 UNK        -0.4224 
     55 C         -80.5148   22.9091  -75.3086 C.2       3 UNK         0.4895 
     56 O         -80.9646   21.7627  -75.2665 O.2       3 UNK        -0.5091 
     57 CA        -80.9359   23.8075  -76.4871 C.3       3 UNK         0.0250 
     58 CB        -82.3377   24.3888  -76.2383 C.3       3 UNK        -0.1996 
     59 N         -80.0131   24.9045  -76.7739 N.am      3 UNK        -0.4254 
     60 C         -78.7791   24.7659  -77.2766 C.2       2 UNK         0.5004 
     61 O         -78.2780   23.6826  -77.5749 O.2       2 UNK        -0.5226 
     62 CA        -77.9523   26.0529  -77.4593 C.3       2 UNK         0.0269 
     63 CB        -77.9855   26.5010  -78.9272 C.3       2 UNK        -0.1926 
     64 N         -78.3599   27.1727  -76.5986 N.am      2 UNK        -0.4687 
     65 C         -78.3521   27.1339  -75.2577 C.2       1 UNK         0.5165 
     66 O         -78.0229   26.1299  -74.6247 O.2       1 UNK        -0.5079 
     67 H67       -76.6166   32.1818  -75.6896 H         1 UNK         0.0900 
     68 H68       -77.0225   31.3692  -77.2026 H         1 UNK         0.0900 
     69 H69       -78.3033   32.0027  -76.1667 H         1 UNK         0.0900 
     70 H70       -79.3946   30.1256  -75.5560 H         1 UNK         0.2959 
     71 H71       -78.2633   28.4192  -73.5691 H         1 UNK         0.1079 
     72 H72       -80.9521   28.3466  -75.0386 H         1 UNK         0.0837 
     73 H73       -80.6336   29.1780  -73.5477 H         1 UNK         0.0837 
     74 H74       -81.2947   26.6083  -70.8634 H         1 UNK         0.0685 
     75 H75       -81.5003   28.2558  -71.3989 H         1 UNK         0.0685 
     76 H76       -78.8778   25.6202  -70.8537 H         1 UNK         0.1434 
     77 H77       -75.8924   28.4375  -69.6529 H         1 UNK         0.1329 
     78 H78       -79.7095   29.8163  -71.0555 H         1 UNK         0.1335 
     79 H79       -77.5877   31.0676  -69.1602 H         1 UNK         0.0680 
     80 H80       -77.9120   31.3915  -70.8472 H         1 UNK         0.0680 
     81 H81       -75.8538   29.5445  -72.3229 H         1 UNK         0.1032 
     82 H82       -75.8585   31.2132  -72.8189 H         1 UNK         0.1032 
     83 H83       -73.3343   31.2450  -72.1459 H         1 UNK         0.0461 
     84 H84       -73.3043   29.7829  -70.0967 H         1 UNK         0.3453 
     85 H85       -72.5299   28.2293  -70.3081 H         1 UNK         0.3453 
     86 H86       -74.4929   30.2163  -74.5938 H         1 UNK         0.2984 
     87 H87       -72.5012   31.8318  -76.4832 H         1 UNK         0.0554 
     88 H88       -70.2700   30.7458  -76.2562 H         1 UNK         0.0847 
     89 H89       -71.0451   30.2238  -77.7382 H         1 UNK         0.0847 
     90 H90       -71.0121   29.1529  -76.3382 H         1 UNK         0.0847 
     91 H91       -73.8914   29.2114  -76.3087 H         1 UNK         0.3141 
     92 H92       -75.9264   29.2531  -77.8373 H         1 UNK         0.0743 
     93 H93       -76.1720   30.7478  -79.8090 H         1 UNK         0.0784 
     94 H94       -74.8993   29.8832  -80.6579 H         1 UNK         0.0784 
     95 H95       -76.4185   29.0789  -80.2837 H         1 UNK         0.0784 
     96 H96       -74.1772   27.7577  -79.6255 H         1 UNK         0.3213 
     97 H97       -73.9015   25.5505  -79.1056 H         1 UNK         0.0855 
     98 H98       -71.8732   26.0757  -76.8437 H         1 UNK         0.0814 
     99 H99       -71.6961   26.6166  -78.5081 H         1 UNK         0.0814 
    100 H100      -71.6704   24.8990  -78.1406 H         1 UNK         0.0814 
    101 H101      -74.6229   25.1286  -76.3250 H         1 UNK         0.3105 
    102 H102      -76.0319   22.2540  -77.0323 H         1 UNK         0.0547 
    103 H103      -74.9060   20.6468  -75.4838 H         1 UNK         0.0837 
    104 H104      -73.3900   21.5284  -75.6732 H         1 UNK         0.0837 
    105 H105      -74.1187   20.7216  -77.0497 H         1 UNK         0.0837 
    106 H106      -76.6415   23.2938  -75.2134 H         1 UNK         0.3020 
    107 H107      -75.3773   23.5346  -72.1862 H         1 UNK         0.1245 
    108 H108      -76.2920   26.3003  -72.7291 H         1 UNK         0.0781 
    109 H109      -74.6659   26.0986  -73.2683 H         1 UNK         0.0781 
    110 H110      -76.0642   25.8023  -68.8615 H         1 UNK         0.0836 
    111 H111      -76.8153   24.7976  -70.0750 H         1 UNK         0.0836 
    112 H112      -77.6667   24.7188  -73.6270 H         1 UNK         0.3022 
    113 H113      -79.4475   21.6257  -73.3154 H         1 UNK         0.0747 
    114 H114      -81.2308   22.7662  -72.1461 H         1 UNK         0.0793 
    115 H115      -79.8649   22.6792  -71.0462 H         1 UNK         0.0793 
    116 H116      -80.2441   24.1907  -71.8659 H         1 UNK         0.0793 
    117 H117      -79.3744   24.3763  -74.4784 H         1 UNK         0.3047 
    118 H118      -80.9831   23.1727  -77.3747 H         1 UNK         0.0822 
    119 H119      -82.6920   24.9564  -77.0990 H         1 UNK         0.0807 
    120 H120      -82.3531   25.0484  -75.3697 H         1 UNK         0.0807 
    121 H121      -83.0633   23.5947  -76.0560 H         1 UNK         0.0807 
    122 H122      -80.3339   25.8367  -76.5575 H         1 UNK         0.2946 
    123 H123      -76.9244   25.8009  -77.1960 H         1 UNK         0.1144 
    124 H124      -77.3354   27.3572  -79.0900 H         1 UNK         0.0793 
    125 H125      -78.9921   26.7768  -79.2437 H         1 UNK         0.0793 
    126 H126      -77.6405   25.7042  -79.5879 H         1 UNK         0.0793 
    127 H127      -78.6458   28.0272  -77.0535 H         1 UNK         0.2896 
@<TRIPOS>BOND
     1    1    2 1    
     2    1   67 1    
     3    1   68 1    
     4    1   69 1    
     5    2    3 2    
     6    2    4 am   BACKBONE|DICT|INTERRES
     7    4    5 1    
     8    4   70 1    
     9    5    6 1    
    10    5   65 1    
    11    5   71 1    
    12    6    7 1    
    13    6   72 1    
    14    6   73 1    
    15    7    8 1    
    16    8    9 1    
    17    8   74 1    
    18    8   75 1    
    19    9   10 ar   
    20    9   14 ar   
    21   10   11 ar   
    22   10   76 1    
    23   11   12 ar   
    24   11   48 1    
    25   12   13 ar   
    26   12   77 1    
    27   13   14 ar   
    28   13   15 1    
    29   14   78 1    
    30   15   16 1    
    31   15   79 1    
    32   15   80 1    
    33   16   17 1    
    34   17   18 1    
    35   17   81 1    
    36   17   82 1    
    37   18   19 1    
    38   18   22 1    
    39   18   83 1    
    40   19   20 am   BACKBONE|DICT|INTERRES
    41   19   21 2    
    42   20   84 1    
    43   20   85 1    
    44   22   23 am   BACKBONE|DICT|INTERRES
    45   22   86 1    
    46   23   24 2    
    47   23   25 1    
    48   25   26 1    
    49   25   27 1    
    50   25   87 1    
    51   26   88 1    
    52   26   89 1    
    53   26   90 1    
    54   27   28 am   BACKBONE|DICT|INTERRES
    55   27   91 1    
    56   28   29 2    
    57   28   30 1    
    58   30   31 1    
    59   30   32 1    
    60   30   92 1    
    61   31   93 1    
    62   31   94 1    
    63   31   95 1    
    64   32   33 am   BACKBONE|DICT|INTERRES
    65   32   96 1    
    66   33   34 2    
    67   33   35 1    
    68   35   36 1    
    69   35   37 1    
    70   35   97 1    
    71   36   98 1    
    72   36   99 1    
    73   36  100 1    
    74   37   38 am   BACKBONE|DICT|INTERRES
    75   37  101 1    
    76   38   39 2    
    77   38   40 1    
    78   40   41 1    
    79   40   42 1    
    80   40  102 1    
    81   41  103 1    
    82   41  104 1    
    83   41  105 1    
    84   42   43 am   BACKBONE|DICT|INTERRES
    85   42  106 1    
    86   43   44 2    
    87   43   45 1    
    88   45   46 1    
    89   45   49 1    
    90   45  107 1    
    91   46   47 1    
    92   46  108 1    
    93   46  109 1    
    94   47   48 1    
    95   48  110 1    
    96   48  111 1    
    97   49   50 am   BACKBONE|DICT|INTERRES
    98   49  112 1    
    99   50   51 2    
   100   50   52 1    
   101   52   53 1    
   102   52   54 1    
   103   52  113 1    
   104   53  114 1    
   105   53  115 1    
   106   53  116 1    
   107   54   55 am   BACKBONE|DICT|INTERRES
   108   54  117 1    
   109   55   56 2    
   110   55   57 1    
   111   57   58 1    
   112   57   59 1    
   113   57  118 1    
   114   58  119 1    
   115   58  120 1    
   116   58  121 1    
   117   59   60 am   BACKBONE|DICT|INTERRES
   118   59  122 1    
   119   60   61 2    
   120   60   62 1    
   121   62   63 1    
   122   62   64 1    
   123   62  123 1    
   124   63  124 1    
   125   63  125 1    
   126   63  126 1    
   127   64   65 am   BACKBONE|DICT|INTERRES
   128   64  127 1    
   129   65   66 2    
@<TRIPOS>SUBSTRUCTURE
     1 UNK         1 GROUP             0       ****    0 ROOT    
