@<TRIPOS>MOLECULE
3R135
127   129    1
SMALL
USER_CHARGES


@<TRIPOS>ATOM
      1 CA        -83.2381   31.4586  -75.9337 C.3       0 UNK        -0.1998 
      2 C         -81.9041   30.7498  -75.7536 C.2       0 UNK         0.4909 
      3 O         -80.8536   31.3580  -75.9604 O.2       0 UNK        -0.5240 
      4 N         -81.9374   29.4694  -75.3751 N.am      1 UNK        -0.4739 
      5 CA        -80.7697   28.6174  -75.1574 C.3       1 UNK         0.0864 
      6 C6        -80.0472   28.9155  -73.8153 C.3       11 UNK        -0.0881 
      7 S7        -81.0776   28.7384  -72.3158 S.3       11 UNK        -0.2682 
      8 C8        -80.0939   29.6848  -71.1038 C.3       11 UNK         0.0289 
      9 C9        -78.6503   29.2022  -71.0352 C.ar      11 UNK        -0.0687 
     10 C10       -78.3697   27.8888  -70.6496 C.ar      11 UNK        -0.0823 
     11 C11       -77.0578   27.4106  -70.6648 C.ar      11 UNK        -0.0830 
     12 C12       -76.0174   28.2676  -71.0324 C.ar      11 UNK        -0.1021 
     13 C13       -76.2767   29.5968  -71.3851 C.ar      11 UNK        -0.0753 
     14 C14       -77.5991   30.0540  -71.3922 C.ar      11 UNK        -0.0933 
     15 C15       -75.1470   30.5302  -71.8095 C.3       11 UNK         0.0166 
     16 S16       -73.6696   30.3977  -70.7508 S.3       11 UNK        -0.2615 
     17 C17       -72.5040   31.4906  -71.6356 C.3       11 UNK        -0.0865 
     18 CA        -71.3832   30.7424  -72.4070 C.3       10 UNK         0.0862 
     19 C         -70.3645   30.0367  -71.4629 C.2       10 UNK         0.5551 
     20 N         -70.1266   28.7370  -71.5936 N.am      10 UNK        -0.7319 
     21 O         -69.7656   30.6865  -70.6092 O.2       10 UNK        -0.5018 
     22 N         -71.9250   29.8924  -73.4828 N.am      10 UNK        -0.4509 
     23 C         -71.2928   29.6387  -74.6369 C.2       10 UNK         0.4899 
     24 O         -70.1851   30.0986  -74.9175 O.2       10 UNK        -0.4839 
     25 CA        -71.9885   28.7244  -75.6662 C.3       9 UNK         0.0222 
     26 CB        -71.2652   27.3738  -75.7706 C.3       9 UNK        -0.1966 
     27 N         -73.4204   28.4890  -75.4444 N.am      9 UNK        -0.4218 
     28 C         -74.3720   29.4254  -75.5630 C.2       9 UNK         0.5020 
     29 O         -74.1379   30.6089  -75.8156 O.2       9 UNK        -0.5274 
     30 CA        -75.8216   28.9461  -75.3633 C.3       8 UNK         0.0270 
     31 CB        -76.8421   30.1050  -75.3788 C.3       8 UNK        -0.1976 
     32 N         -76.1873   27.9084  -76.3347 N.am      8 UNK        -0.4313 
     33 C         -76.2701   28.0250  -77.6698 C.2       8 UNK         0.5041 
     34 O         -76.0848   29.0716  -78.2931 O.2       8 UNK        -0.5577 
     35 CA        -76.6372   26.7338  -78.4257 C.3       7 UNK         0.0284 
     36 CB        -76.4885   26.8527  -79.9580 C.3       7 UNK        -0.1958 
     37 N         -75.9164   25.5661  -77.9062 N.am      7 UNK        -0.4454 
     38 C         -74.5910   25.3501  -77.9316 C.2       7 UNK         0.5089 
     39 O         -73.7735   26.1059  -78.4581 O.2       7 UNK        -0.5125 
     40 CA        -74.1137   24.0660  -77.2259 C.3       6 UNK         0.0408 
     41 CB        -72.5844   23.9757  -77.0499 C.3       6 UNK        -0.1791 
     42 N         -74.7917   23.8306  -75.9475 N.am      6 UNK        -0.4762 
     43 C         -74.8440   24.6468  -74.8796 C.2       6 UNK         0.5007 
     44 O         -74.3018   25.7548  -74.8450 O.2       6 UNK        -0.5032 
     45 CA        -75.6732   24.1707  -73.6644 C.3       5 UNK         0.0783 
     46 C46       -76.5149   25.3277  -73.0729 C.3       11 UNK        -0.0857 
     47 S47       -77.4388   24.8252  -71.5792 S.3       11 UNK        -0.2512 
     48 C48       -76.7704   25.9572  -70.3183 C.3       11 UNK         0.0225 
     49 N         -76.5226   23.0342  -74.0294 N.am      5 UNK        -0.4615 
     50 C         -76.2507   21.7440  -73.8004 C.2       4 UNK         0.5053 
     51 O         -75.2561   21.3494  -73.1925 O.2       4 UNK        -0.5105 
     52 CA        -77.2452   20.7151  -74.3737 C.3       4 UNK         0.0263 
     53 CB        -78.2118   20.2410  -73.2765 C.3       4 UNK        -0.1981 
     54 N         -78.0224   21.2260  -75.5093 N.am      4 UNK        -0.4224 
     55 C         -77.5107   21.5738  -76.7001 C.2       3 UNK         0.4895 
     56 O         -76.3275   21.4276  -77.0036 O.2       3 UNK        -0.5091 
     57 CA        -78.4625   22.2682  -77.6898 C.3       3 UNK         0.0250 
     58 CB        -79.1349   21.2352  -78.6075 C.3       3 UNK        -0.1996 
     59 N         -79.4896   23.0771  -77.0224 N.am      3 UNK        -0.4254 
     60 C         -79.2423   24.1837  -76.3084 C.2       2 UNK         0.5004 
     61 O         -78.1175   24.6729  -76.1611 O.2       2 UNK        -0.5226 
     62 CA        -80.4383   24.8039  -75.5825 C.3       2 UNK         0.0269 
     63 CB        -80.6224   24.1506  -74.2000 C.3       2 UNK        -0.1926 
     64 N         -80.2206   26.2395  -75.4243 N.am      2 UNK        -0.4687 
     65 C         -81.1981   27.1454  -75.3006 C.2       1 UNK         0.5165 
     66 O         -82.3994   26.8558  -75.3026 O.2       1 UNK        -0.5079 
     67 H67       -84.0805   30.8021  -75.7161 H         1 UNK         0.0900 
     68 H68       -83.2982   32.3188  -75.2674 H         1 UNK         0.0900 
     69 H69       -83.3398   31.8131  -76.9590 H         1 UNK         0.0900 
     70 H70       -82.8174   28.9828  -75.2513 H         1 UNK         0.2959 
     71 H71       -80.0694   28.8078  -75.9739 H         1 UNK         0.1079 
     72 H72       -79.6664   29.9375  -73.8355 H         1 UNK         0.0837 
     73 H73       -79.1683   28.2772  -73.7057 H         1 UNK         0.0837 
     74 H74       -80.5530   29.5883  -70.1191 H         1 UNK         0.0685 
     75 H75       -80.1384   30.7436  -71.3637 H         1 UNK         0.0685 
     76 H76       -79.1800   27.2234  -70.3836 H         1 UNK         0.1434 
     77 H77       -75.0022   27.8957  -71.0527 H         1 UNK         0.1329 
     78 H78       -77.8129   31.0705  -71.6933 H         1 UNK         0.1335 
     79 H79       -75.4864   31.5672  -71.8004 H         1 UNK         0.0680 
     80 H80       -74.8712   30.3014  -72.8369 H         1 UNK         0.0680 
     81 H81       -73.0566   32.1279  -72.3278 H         1 UNK         0.1032 
     82 H82       -72.0660   32.1770  -70.9084 H         1 UNK         0.1032 
     83 H83       -70.7979   31.5272  -72.8903 H         1 UNK         0.0461 
     84 H84       -70.6092   28.1998  -72.2951 H         1 UNK         0.3453 
     85 H85       -69.4604   28.2917  -70.9825 H         1 UNK         0.3453 
     86 H86       -72.8161   29.4561  -73.3042 H         1 UNK         0.2984 
     87 H87       -71.8892   29.2235  -76.6325 H         1 UNK         0.0554 
     88 H88       -70.1860   27.5042  -75.8641 H         1 UNK         0.0847 
     89 H89       -71.5955   26.8338  -76.6571 H         1 UNK         0.0847 
     90 H90       -71.4467   26.7456  -74.8977 H         1 UNK         0.0847 
     91 H91       -73.7001   27.5304  -75.2440 H         1 UNK         0.3141 
     92 H92       -75.8702   28.4770  -74.3791 H         1 UNK         0.0743 
     93 H93       -76.6833   30.7785  -74.5363 H         1 UNK         0.0784 
     94 H94       -77.8618   29.7356  -75.3157 H         1 UNK         0.0784 
     95 H95       -76.7694   30.7025  -76.2881 H         1 UNK         0.0784 
     96 H96       -76.2980   26.9788  -75.9547 H         1 UNK         0.3213 
     97 H97       -77.6934   26.5551  -78.2177 H         1 UNK         0.0855 
     98 H98       -75.4681   27.1016  -80.2507 H         1 UNK         0.0814 
     99 H99       -77.1365   27.6369  -80.3514 H         1 UNK         0.0814 
    100 H100      -76.7649   25.9241  -80.4571 H         1 UNK         0.0814 
    101 H101      -76.4921   24.9108  -77.3865 H         1 UNK         0.3105 
    102 H102      -74.4088   23.2480  -77.8845 H         1 UNK         0.0547 
    103 H103      -72.2889   22.9792  -76.7224 H         1 UNK         0.0837 
    104 H104      -72.2190   24.6839  -76.3092 H         1 UNK         0.0837 
    105 H105      -72.0609   24.1733  -77.9861 H         1 UNK         0.0837 
    106 H106      -75.2980   22.9540  -75.8967 H         1 UNK         0.3020 
    107 H107      -74.9494   23.8610  -72.9071 H         1 UNK         0.1245 
    108 H108      -77.2349   25.6995  -73.8036 H         1 UNK         0.0781 
    109 H109      -75.8705   26.1722  -72.8294 H         1 UNK         0.0781 
    110 H110      -75.6987   25.7828  -70.2095 H         1 UNK         0.0836 
    111 H111      -77.2200   25.7205  -69.3530 H         1 UNK         0.0836 
    112 H112      -77.3487   23.2724  -74.5607 H         1 UNK         0.3022 
    113 H113      -76.6663   19.8565  -74.7206 H         1 UNK         0.0747 
    114 H114      -78.8782   19.4600  -73.6432 H         1 UNK         0.0793 
    115 H115      -77.6653   19.8256  -72.4285 H         1 UNK         0.0793 
    116 H116      -78.8261   21.0592  -72.8978 H         1 UNK         0.0793 
    117 H117      -79.0096   21.3682  -75.3548 H         1 UNK         0.3047 
    118 H118      -77.8602   22.9353  -78.3106 H         1 UNK         0.0822 
    119 H119      -79.7496   21.7195  -79.3665 H         1 UNK         0.0807 
    120 H120      -79.7704   20.5471  -78.0485 H         1 UNK         0.0807 
    121 H121      -78.3889   20.6363  -79.1323 H         1 UNK         0.0807 
    122 H122      -80.4407   22.7429  -77.0928 H         1 UNK         0.2946 
    123 H123      -81.3328   24.6386  -76.1882 H         1 UNK         0.1144 
    124 H124      -81.4839   24.5655  -73.6765 H         1 UNK         0.0793 
    125 H125      -79.7474   24.2985  -73.5659 H         1 UNK         0.0793 
    126 H126      -80.7873   23.0761  -74.2870 H         1 UNK         0.0793 
    127 H127      -79.2507   26.5236  -75.4557 H         1 UNK         0.2896 
@<TRIPOS>BOND
     1    1    2 1    
     2    1   67 1    
     3    1   68 1    
     4    1   69 1    
     5    2    3 2    
     6    2    4 am   BACKBONE|DICT|INTERRES
     7    4    5 1    
     8    4   70 1    
     9    5    6 1    
    10    5   65 1    
    11    5   71 1    
    12    6    7 1    
    13    6   72 1    
    14    6   73 1    
    15    7    8 1    
    16    8    9 1    
    17    8   74 1    
    18    8   75 1    
    19    9   10 ar   
    20    9   14 ar   
    21   10   11 ar   
    22   10   76 1    
    23   11   12 ar   
    24   11   48 1    
    25   12   13 ar   
    26   12   77 1    
    27   13   14 ar   
    28   13   15 1    
    29   14   78 1    
    30   15   16 1    
    31   15   79 1    
    32   15   80 1    
    33   16   17 1    
    34   17   18 1    
    35   17   81 1    
    36   17   82 1    
    37   18   19 1    
    38   18   22 1    
    39   18   83 1    
    40   19   20 am   BACKBONE|DICT|INTERRES
    41   19   21 2    
    42   20   84 1    
    43   20   85 1    
    44   22   23 am   BACKBONE|DICT|INTERRES
    45   22   86 1    
    46   23   24 2    
    47   23   25 1    
    48   25   26 1    
    49   25   27 1    
    50   25   87 1    
    51   26   88 1    
    52   26   89 1    
    53   26   90 1    
    54   27   28 am   BACKBONE|DICT|INTERRES
    55   27   91 1    
    56   28   29 2    
    57   28   30 1    
    58   30   31 1    
    59   30   32 1    
    60   30   92 1    
    61   31   93 1    
    62   31   94 1    
    63   31   95 1    
    64   32   33 am   BACKBONE|DICT|INTERRES
    65   32   96 1    
    66   33   34 2    
    67   33   35 1    
    68   35   36 1    
    69   35   37 1    
    70   35   97 1    
    71   36   98 1    
    72   36   99 1    
    73   36  100 1    
    74   37   38 am   BACKBONE|DICT|INTERRES
    75   37  101 1    
    76   38   39 2    
    77   38   40 1    
    78   40   41 1    
    79   40   42 1    
    80   40  102 1    
    81   41  103 1    
    82   41  104 1    
    83   41  105 1    
    84   42   43 am   BACKBONE|DICT|INTERRES
    85   42  106 1    
    86   43   44 2    
    87   43   45 1    
    88   45   46 1    
    89   45   49 1    
    90   45  107 1    
    91   46   47 1    
    92   46  108 1    
    93   46  109 1    
    94   47   48 1    
    95   48  110 1    
    96   48  111 1    
    97   49   50 am   BACKBONE|DICT|INTERRES
    98   49  112 1    
    99   50   51 2    
   100   50   52 1    
   101   52   53 1    
   102   52   54 1    
   103   52  113 1    
   104   53  114 1    
   105   53  115 1    
   106   53  116 1    
   107   54   55 am   BACKBONE|DICT|INTERRES
   108   54  117 1    
   109   55   56 2    
   110   55   57 1    
   111   57   58 1    
   112   57   59 1    
   113   57  118 1    
   114   58  119 1    
   115   58  120 1    
   116   58  121 1    
   117   59   60 am   BACKBONE|DICT|INTERRES
   118   59  122 1    
   119   60   61 2    
   120   60   62 1    
   121   62   63 1    
   122   62   64 1    
   123   62  123 1    
   124   63  124 1    
   125   63  125 1    
   126   63  126 1    
   127   64   65 am   BACKBONE|DICT|INTERRES
   128   64  127 1    
   129   65   66 2    
@<TRIPOS>SUBSTRUCTURE
     1 UNK         1 GROUP             0       ****    0 ROOT    
