@<TRIPOS>MOLECULE
3R135
127   129    1
SMALL
USER_CHARGES


@<TRIPOS>ATOM
      1 CA        -83.4196   27.1343  -70.6917 C.3       0 UNK        -0.1998 
      2 C         -82.4462   27.2958  -71.8489 C.2       0 UNK         0.4909 
      3 O         -81.6657   26.3836  -72.1165 O.2       0 UNK        -0.5240 
      4 N         -82.4899   28.4520  -72.5285 N.am      1 UNK        -0.4739 
      5 CA        -81.6462   28.8268  -73.6774 C.3       1 UNK         0.0864 
      6 C6        -80.1400   28.9773  -73.3212 C.3       11 UNK        -0.0881 
      7 S7        -79.8380   30.2741  -72.0688 S.3       11 UNK        -0.2682 
      8 C8        -79.5148   29.3110  -70.5556 C.3       11 UNK         0.0289 
      9 C9        -78.1756   28.5910  -70.6077 C.ar      11 UNK        -0.0687 
     10 C10       -78.1188   27.2313  -70.9253 C.ar      11 UNK        -0.0823 
     11 C11       -76.8900   26.5679  -70.9991 C.ar      11 UNK        -0.0830 
     12 C12       -75.7138   27.2691  -70.7175 C.ar      11 UNK        -0.1021 
     13 C13       -75.7599   28.6242  -70.3761 C.ar      11 UNK        -0.0753 
     14 C14       -76.9931   29.2816  -70.3272 C.ar      11 UNK        -0.0933 
     15 C15       -74.4761   29.3715  -70.0485 C.3       11 UNK         0.0166 
     16 S16       -73.5095   29.7452  -71.5418 S.3       11 UNK        -0.2615 
     17 C17       -74.5555   31.0156  -72.3372 C.3       11 UNK        -0.0865 
     18 CA        -73.9588   31.5575  -73.6620 C.3       10 UNK         0.0862 
     19 C         -72.7175   32.4689  -73.4169 C.2       10 UNK         0.5551 
     20 N         -71.5206   32.1121  -73.8705 N.am      10 UNK        -0.7319 
     21 O         -72.8507   33.5298  -72.8115 O.2       10 UNK        -0.5018 
     22 N         -73.7522   30.4705  -74.6281 N.am      10 UNK        -0.4509 
     23 C         -73.5737   30.6264  -75.9448 C.2       10 UNK         0.4899 
     24 O         -73.7008   31.7048  -76.5267 O.2       10 UNK        -0.4839 
     25 CA        -73.1844   29.3633  -76.7407 C.3       9 UNK         0.0222 
     26 CB        -72.3875   29.6974  -78.0189 C.3       9 UNK        -0.1966 
     27 N         -72.4782   28.3484  -75.9443 N.am      9 UNK        -0.4218 
     28 C         -71.3182   28.4842  -75.2793 C.2       9 UNK         0.5020 
     29 O         -70.6849   29.5383  -75.2074 O.2       9 UNK        -0.5274 
     30 CA        -70.7811   27.2358  -74.5614 C.3       8 UNK         0.0270 
     31 CB        -71.4322   27.0906  -73.1761 C.3       8 UNK        -0.1976 
     32 N         -71.0374   26.0270  -75.3463 N.am      8 UNK        -0.4313 
     33 C         -70.1424   25.4199  -76.1383 C.2       8 UNK         0.5041 
     34 O         -68.9580   25.7489  -76.2175 O.2       8 UNK        -0.5577 
     35 CA        -70.6552   24.2506  -77.0028 C.3       7 UNK         0.0284 
     36 CB        -70.5079   22.9183  -76.2502 C.3       7 UNK        -0.1958 
     37 N         -72.0493   24.4205  -77.4224 N.am      7 UNK        -0.4454 
     38 C         -72.4809   25.3792  -78.2540 C.2       7 UNK         0.5089 
     39 O         -71.7282   26.1300  -78.8737 O.2       7 UNK        -0.5125 
     40 CA        -74.0047   25.5599  -78.4053 C.3       6 UNK         0.0408 
     41 CB        -74.4743   25.0129  -79.7627 C.3       6 UNK        -0.1791 
     42 N         -74.8275   24.9650  -77.3425 N.am      6 UNK        -0.4762 
     43 C         -74.7677   25.2315  -76.0277 C.2       6 UNK         0.5007 
     44 O         -73.9236   25.9815  -75.5350 O.2       6 UNK        -0.5032 
     45 CA        -75.8008   24.5467  -75.1075 C.3       5 UNK         0.0783 
     46 C46       -76.4625   25.5691  -74.1494 C.3       11 UNK        -0.0857 
     47 S47       -77.6141   24.7607  -72.9856 S.3       11 UNK        -0.2512 
     48 C48       -76.8361   25.0923  -71.3722 C.3       11 UNK         0.0225 
     49 N         -76.8074   23.8089  -75.8795 N.am      5 UNK        -0.4615 
     50 C         -76.7734   22.5076  -76.1779 C.2       4 UNK         0.5053 
     51 O         -75.8372   21.7675  -75.8729 O.2       4 UNK        -0.5105 
     52 CA        -77.9916   21.9525  -76.9492 C.3       4 UNK         0.0263 
     53 CB        -77.8986   20.4329  -77.1844 C.3       4 UNK        -0.1981 
     54 N         -79.2733   22.2531  -76.2967 N.am      4 UNK        -0.4224 
     55 C         -79.8820   23.4467  -76.2751 C.2       3 UNK         0.4895 
     56 O         -79.4112   24.4610  -76.7993 O.2       3 UNK        -0.5091 
     57 CA        -81.2247   23.5196  -75.5363 C.3       3 UNK         0.0250 
     58 CB        -81.0488   23.3547  -74.0151 C.3       3 UNK        -0.1996 
     59 N         -81.8491   24.8089  -75.8157 N.am      3 UNK        -0.4254 
     60 C         -83.1578   25.0729  -75.8012 C.2       2 UNK         0.5004 
     61 O         -84.0210   24.2370  -75.5251 O.2       2 UNK        -0.5226 
     62 CA        -83.5595   26.5243  -76.1282 C.3       2 UNK         0.0269 
     63 CB        -85.0771   26.6860  -76.3375 C.3       2 UNK        -0.1926 
     64 N         -83.1300   27.4411  -75.0696 N.am      2 UNK        -0.4687 
     65 C         -81.8862   27.9159  -74.9064 C.2       1 UNK         0.5165 
     66 O         -80.9651   27.6620  -75.6854 O.2       1 UNK        -0.5079 
     67 H67       -84.0697   26.2773  -70.8661 H         1 UNK         0.0900 
     68 H68       -84.0471   28.0154  -70.5587 H         1 UNK         0.0900 
     69 H69       -82.8730   26.9644  -69.7645 H         1 UNK         0.0900 
     70 H70       -83.1540   29.1587  -72.2431 H         1 UNK         0.2959 
     71 H71       -81.9972   29.8102  -73.9945 H         1 UNK         0.1079 
     72 H72       -79.7223   28.0238  -73.0001 H         1 UNK         0.0837 
     73 H73       -79.5671   29.2644  -74.2048 H         1 UNK         0.0837 
     74 H74       -80.3265   28.6038  -70.3866 H         1 UNK         0.0685 
     75 H75       -79.5257   29.9901  -69.7019 H         1 UNK         0.0685 
     76 H76       -79.0312   26.6893  -71.1372 H         1 UNK         0.1434 
     77 H77       -74.7580   26.7648  -70.7641 H         1 UNK         0.1329 
     78 H78       -77.0351   30.3321  -70.0735 H         1 UNK         0.1335 
     79 H79       -73.8665   28.7627  -69.3793 H         1 UNK         0.0680 
     80 H80       -74.6880   30.2970  -69.5107 H         1 UNK         0.0680 
     81 H81       -75.5351   30.5788  -72.5377 H         1 UNK         0.1032 
     82 H82       -74.7337   31.8293  -71.6315 H         1 UNK         0.1032 
     83 H83       -74.7141   32.2161  -74.0953 H         1 UNK         0.0461 
     84 H84       -70.7324   32.7172  -73.7062 H         1 UNK         0.3453 
     85 H85       -71.3870   31.2348  -74.3620 H         1 UNK         0.3453 
     86 H86       -73.6124   29.5553  -74.2264 H         1 UNK         0.2984 
     87 H87       -74.1236   28.9016  -77.0484 H         1 UNK         0.0554 
     88 H88       -72.1402   28.7971  -78.5803 H         1 UNK         0.0847 
     89 H89       -71.4555   30.2148  -77.7890 H         1 UNK         0.0847 
     90 H90       -72.9621   30.3424  -78.6846 H         1 UNK         0.0847 
     91 H91       -72.9633   27.4566  -75.8622 H         1 UNK         0.3141 
     92 H92       -69.7068   27.3690  -74.4171 H         1 UNK         0.0743 
     93 H93       -71.2250   27.9650  -72.5579 H         1 UNK         0.0784 
     94 H94       -72.5162   26.9849  -73.2410 H         1 UNK         0.0784 
     95 H95       -71.0430   26.2216  -72.6456 H         1 UNK         0.0784 
     96 H96       -72.0007   25.7087  -75.3737 H         1 UNK         0.3213 
     97 H97       -70.0352   24.2079  -77.9011 H         1 UNK         0.0855 
     98 H98       -71.1195   22.8923  -75.3473 H         1 UNK         0.0814 
     99 H99       -69.4727   22.7558  -75.9467 H         1 UNK         0.0814 
    100 H100      -70.7959   22.0739  -76.8767 H         1 UNK         0.0814 
    101 H101      -72.7399   23.8313  -76.9807 H         1 UNK         0.3105 
    102 H102      -74.1946   26.6349  -78.3907 H         1 UNK         0.0547 
    103 H103      -74.3445   23.9320  -79.8289 H         1 UNK         0.0837 
    104 H104      -75.5259   25.2381  -79.9412 H         1 UNK         0.0837 
    105 H105      -73.9085   25.4590  -80.5821 H         1 UNK         0.0837 
    106 H106      -75.5511   24.3287  -77.6443 H         1 UNK         0.3020 
    107 H107      -75.2338   23.8417  -74.4952 H         1 UNK         0.1245 
    108 H108      -77.0213   26.3198  -74.7115 H         1 UNK         0.0781 
    109 H109      -75.7064   26.1162  -73.5830 H         1 UNK         0.0781 
    110 H110      -77.3571   24.5168  -70.6060 H         1 UNK         0.0836 
    111 H111      -75.8087   24.7250  -71.3882 H         1 UNK         0.0836 
    112 H112      -77.6344   24.3299  -76.1611 H         1 UNK         0.3022 
    113 H113      -77.9881   22.4355  -77.9287 H         1 UNK         0.0747 
    114 H114      -76.9853   20.1742  -77.7221 H         1 UNK         0.0793 
    115 H115      -78.7350   20.0713  -77.7829 H         1 UNK         0.0793 
    116 H116      -77.8924   19.8787  -76.2450 H         1 UNK         0.0793 
    117 H117      -79.7120   21.4838  -75.8111 H         1 UNK         0.3047 
    118 H118      -81.8603   22.7191  -75.9212 H         1 UNK         0.0822 
    119 H119      -80.5375   22.4248  -73.7647 H         1 UNK         0.0807 
    120 H120      -82.0125   23.3400  -73.5057 H         1 UNK         0.0807 
    121 H121      -80.4685   24.1746  -73.5907 H         1 UNK         0.0807 
    122 H122      -81.1985   25.5524  -76.0545 H         1 UNK         0.2946 
    123 H123      -83.0636   26.7981  -77.0627 H         1 UNK         0.1144 
    124 H124      -85.6396   26.4462  -75.4342 H         1 UNK         0.0793 
    125 H125      -85.4340   26.0258  -77.1292 H         1 UNK         0.0793 
    126 H126      -85.3306   27.7053  -76.6296 H         1 UNK         0.0793 
    127 H127      -83.8160   27.6667  -74.3636 H         1 UNK         0.2896 
@<TRIPOS>BOND
     1    1    2 1    
     2    1   67 1    
     3    1   68 1    
     4    1   69 1    
     5    2    3 2    
     6    2    4 am   BACKBONE|DICT|INTERRES
     7    4    5 1    
     8    4   70 1    
     9    5    6 1    
    10    5   65 1    
    11    5   71 1    
    12    6    7 1    
    13    6   72 1    
    14    6   73 1    
    15    7    8 1    
    16    8    9 1    
    17    8   74 1    
    18    8   75 1    
    19    9   10 ar   
    20    9   14 ar   
    21   10   11 ar   
    22   10   76 1    
    23   11   12 ar   
    24   11   48 1    
    25   12   13 ar   
    26   12   77 1    
    27   13   14 ar   
    28   13   15 1    
    29   14   78 1    
    30   15   16 1    
    31   15   79 1    
    32   15   80 1    
    33   16   17 1    
    34   17   18 1    
    35   17   81 1    
    36   17   82 1    
    37   18   19 1    
    38   18   22 1    
    39   18   83 1    
    40   19   20 am   BACKBONE|DICT|INTERRES
    41   19   21 2    
    42   20   84 1    
    43   20   85 1    
    44   22   23 am   BACKBONE|DICT|INTERRES
    45   22   86 1    
    46   23   24 2    
    47   23   25 1    
    48   25   26 1    
    49   25   27 1    
    50   25   87 1    
    51   26   88 1    
    52   26   89 1    
    53   26   90 1    
    54   27   28 am   BACKBONE|DICT|INTERRES
    55   27   91 1    
    56   28   29 2    
    57   28   30 1    
    58   30   31 1    
    59   30   32 1    
    60   30   92 1    
    61   31   93 1    
    62   31   94 1    
    63   31   95 1    
    64   32   33 am   BACKBONE|DICT|INTERRES
    65   32   96 1    
    66   33   34 2    
    67   33   35 1    
    68   35   36 1    
    69   35   37 1    
    70   35   97 1    
    71   36   98 1    
    72   36   99 1    
    73   36  100 1    
    74   37   38 am   BACKBONE|DICT|INTERRES
    75   37  101 1    
    76   38   39 2    
    77   38   40 1    
    78   40   41 1    
    79   40   42 1    
    80   40  102 1    
    81   41  103 1    
    82   41  104 1    
    83   41  105 1    
    84   42   43 am   BACKBONE|DICT|INTERRES
    85   42  106 1    
    86   43   44 2    
    87   43   45 1    
    88   45   46 1    
    89   45   49 1    
    90   45  107 1    
    91   46   47 1    
    92   46  108 1    
    93   46  109 1    
    94   47   48 1    
    95   48  110 1    
    96   48  111 1    
    97   49   50 am   BACKBONE|DICT|INTERRES
    98   49  112 1    
    99   50   51 2    
   100   50   52 1    
   101   52   53 1    
   102   52   54 1    
   103   52  113 1    
   104   53  114 1    
   105   53  115 1    
   106   53  116 1    
   107   54   55 am   BACKBONE|DICT|INTERRES
   108   54  117 1    
   109   55   56 2    
   110   55   57 1    
   111   57   58 1    
   112   57   59 1    
   113   57  118 1    
   114   58  119 1    
   115   58  120 1    
   116   58  121 1    
   117   59   60 am   BACKBONE|DICT|INTERRES
   118   59  122 1    
   119   60   61 2    
   120   60   62 1    
   121   62   63 1    
   122   62   64 1    
   123   62  123 1    
   124   63  124 1    
   125   63  125 1    
   126   63  126 1    
   127   64   65 am   BACKBONE|DICT|INTERRES
   128   64  127 1    
   129   65   66 2    
@<TRIPOS>SUBSTRUCTURE
     1 UNK         1 GROUP             0       ****    0 ROOT    
