@<TRIPOS>MOLECULE
3R135
127   129    1
SMALL
USER_CHARGES


@<TRIPOS>ATOM
      1 CA        -83.2175   26.7598  -74.8879 C.3       0 UNK        -0.1998 
      2 C         -81.8275   26.3587  -74.4189 C.2       0 UNK         0.4909 
      3 O         -80.9499   26.1255  -75.2465 O.2       0 UNK        -0.5240 
      4 N         -81.6204   26.2830  -73.0985 N.am      1 UNK        -0.4739 
      5 CA        -80.3559   25.8907  -72.4673 C.3       1 UNK         0.0864 
      6 C6        -80.3949   26.1934  -70.9493 C.3       11 UNK        -0.0881 
      7 S7        -78.7339   26.3283  -70.2046 S.3       11 UNK        -0.2682 
      8 C8        -78.6076   28.1146  -69.8864 C.3       11 UNK         0.0289 
      9 C9        -78.1538   28.8833  -71.1182 C.ar      11 UNK        -0.0687 
     10 C10       -79.0856   29.4469  -71.9971 C.ar      11 UNK        -0.0823 
     11 C11       -78.6580   30.2111  -73.0890 C.ar      11 UNK        -0.0830 
     12 C12       -77.2888   30.4071  -73.2955 C.ar      11 UNK        -0.1021 
     13 C13       -76.3502   29.8285  -72.4389 C.ar      11 UNK        -0.0753 
     14 C14       -76.7885   29.0661  -71.3535 C.ar      11 UNK        -0.0933 
     15 C15       -74.8635   30.0278  -72.6835 C.3       11 UNK         0.0166 
     16 S16       -74.1621   31.2025  -71.4838 S.3       11 UNK        -0.2615 
     17 C17       -72.4630   31.5952  -72.0526 C.3       11 UNK        -0.0865 
     18 CA        -71.8570   30.8094  -73.2585 C.3       10 UNK         0.0862 
     19 C         -70.5041   31.4238  -73.7378 C.2       10 UNK         0.5551 
     20 N         -69.5426   30.6337  -74.2010 N.am      10 UNK        -0.7319 
     21 O         -70.3298   32.6401  -73.7212 O.2       10 UNK        -0.5018 
     22 N         -71.8090   29.3474  -73.0714 N.am      10 UNK        -0.4509 
     23 C         -71.2027   28.6690  -72.0909 C.2       10 UNK         0.4899 
     24 O         -70.6476   29.2062  -71.1315 O.2       10 UNK        -0.4839 
     25 CA        -71.1846   27.1274  -72.2207 C.3       9 UNK         0.0222 
     26 CB        -70.6678   26.4373  -70.9434 C.3       9 UNK        -0.1966 
     27 N         -72.4662   26.5135  -72.5983 N.am      9 UNK        -0.4218 
     28 C         -73.0466   26.5611  -73.8051 C.2       9 UNK         0.5020 
     29 O         -72.6345   27.2645  -74.7313 O.2       9 UNK        -0.5274 
     30 CA        -74.3083   25.6942  -73.9874 C.3       8 UNK         0.0270 
     31 CB        -75.5480   26.4043  -73.4203 C.3       8 UNK        -0.1976 
     32 N         -74.5661   25.3725  -75.3908 N.am      8 UNK        -0.4313 
     33 C         -73.7659   24.6602  -76.1957 C.2       8 UNK         0.5041 
     34 O         -72.7577   24.0627  -75.8140 O.2       8 UNK        -0.5577 
     35 CA        -74.1426   24.6260  -77.6858 C.3       7 UNK         0.0284 
     36 CB        -75.0933   23.4553  -77.9866 C.3       7 UNK        -0.1958 
     37 N         -74.7570   25.8870  -78.1139 N.am      7 UNK        -0.4454 
     38 C         -74.0708   26.9599  -78.5353 C.2       7 UNK         0.5089 
     39 O         -72.8479   26.9736  -78.6792 O.2       7 UNK        -0.5125 
     40 CA        -74.8726   28.2296  -78.8847 C.3       6 UNK         0.0408 
     41 CB        -75.0795   28.3250  -80.4051 C.3       6 UNK        -0.1791 
     42 N         -76.1777   28.2906  -78.2227 N.am      6 UNK        -0.4762 
     43 C         -76.3766   28.6776  -76.9533 C.2       6 UNK         0.5007 
     44 O         -75.4868   29.1170  -76.2265 O.2       6 UNK        -0.5032 
     45 CA        -77.8059   28.5179  -76.3878 C.3       5 UNK         0.0783 
     46 C46       -78.5804   29.8563  -76.4427 C.3       11 UNK        -0.0857 
     47 S47       -80.1018   29.7911  -75.4349 S.3       11 UNK        -0.2512 
     48 C48       -79.6734   30.8589  -74.0216 C.3       11 UNK         0.0225 
     49 N         -78.5586   27.4388  -77.0422 N.am      5 UNK        -0.4615 
     50 C         -78.2226   26.1459  -77.0080 C.2       4 UNK         0.5053 
     51 O         -77.2160   25.7198  -76.4390 O.2       4 UNK        -0.5105 
     52 CA        -79.1013   25.1871  -77.8127 C.3       4 UNK         0.0263 
     53 CB        -78.5956   25.0676  -79.2622 C.3       4 UNK        -0.1981 
     54 N         -79.0759   23.8837  -77.1620 N.am      4 UNK        -0.4224 
     55 C         -80.0317   22.9541  -77.2419 C.2       3 UNK         0.4895 
     56 O         -81.0202   23.0514  -77.9705 O.2       3 UNK        -0.5091 
     57 CA        -79.8889   21.7093  -76.3474 C.3       3 UNK         0.0250 
     58 CB        -79.0014   20.6376  -77.0120 C.3       3 UNK        -0.1996 
     59 N         -79.4658   22.0079  -74.9706 N.am      3 UNK        -0.4254 
     60 C         -78.2717   22.4239  -74.5276 C.2       2 UNK         0.5004 
     61 O         -77.2947   22.6115  -75.2528 O.2       2 UNK        -0.5226 
     62 CA        -78.1849   22.7484  -73.0272 C.3       2 UNK         0.0269 
     63 CB        -76.7414   22.6739  -72.4976 C.3       2 UNK        -0.1926 
     64 N         -78.7188   24.0851  -72.7634 N.am      2 UNK        -0.4687 
     65 C         -80.0185   24.4064  -72.7382 C.2       1 UNK         0.5165 
     66 O         -80.9245   23.5792  -72.8803 O.2       1 UNK        -0.5079 
     67 H67       -83.8990   26.9238  -74.0534 H         1 UNK         0.0900 
     68 H68       -83.6378   25.9800  -75.5224 H         1 UNK         0.0900 
     69 H69       -83.1628   27.6804  -75.4684 H         1 UNK         0.0900 
     70 H70       -82.3925   26.4483  -72.4694 H         1 UNK         0.2959 
     71 H71       -79.5770   26.5039  -72.9283 H         1 UNK         0.1079 
     72 H72       -80.9297   27.1267  -70.7684 H         1 UNK         0.0837 
     73 H73       -80.9607   25.4303  -70.4108 H         1 UNK         0.0837 
     74 H74       -79.5564   28.5044  -69.5150 H         1 UNK         0.0685 
     75 H75       -77.8901   28.2685  -69.0789 H         1 UNK         0.0685 
     76 H76       -80.1434   29.3072  -71.8214 H         1 UNK         0.1434 
     77 H77       -76.9469   31.0120  -74.1231 H         1 UNK         0.1329 
     78 H78       -76.0632   28.6308  -70.6796 H         1 UNK         0.1335 
     79 H79       -74.3636   29.0652  -72.5886 H         1 UNK         0.0680 
     80 H80       -74.6943   30.3801  -73.7016 H         1 UNK         0.0680 
     81 H81       -71.8018   31.5193  -71.1886 H         1 UNK         0.1032 
     82 H82       -72.4835   32.6599  -72.2922 H         1 UNK         0.1032 
     83 H83       -72.5211   30.9641  -74.1083 H         1 UNK         0.0461 
     84 H84       -69.6776   29.6365  -74.2410 H         1 UNK         0.3453 
     85 H85       -68.6773   31.0413  -74.5186 H         1 UNK         0.3453 
     86 H86       -72.1952   28.7912  -73.8324 H         1 UNK         0.2984 
     87 H87       -70.4719   26.9024  -73.0168 H         1 UNK         0.0554 
     88 H88       -70.5905   25.3579  -71.0758 H         1 UNK         0.0847 
     89 H89       -71.3212   26.6269  -70.0908 H         1 UNK         0.0847 
     90 H90       -69.6723   26.7954  -70.6769 H         1 UNK         0.0847 
     91 H91       -72.9068   25.9510  -71.8845 H         1 UNK         0.3141 
     92 H92       -74.1584   24.7531  -73.4554 H         1 UNK         0.0743 
     93 H93       -75.7127   27.3655  -73.9082 H         1 UNK         0.0784 
     94 H94       -76.4484   25.8078  -73.5631 H         1 UNK         0.0784 
     95 H95       -75.4456   26.5890  -72.3505 H         1 UNK         0.0784 
     96 H96       -75.4244   25.7424  -75.7880 H         1 UNK         0.3213 
     97 H97       -73.2244   24.4627  -78.2545 H         1 UNK         0.0855 
     98 H98       -76.0386   23.5502  -77.4531 H         1 UNK         0.0814 
     99 H99       -74.6482   22.5065  -77.6845 H         1 UNK         0.0814 
    100 H100      -75.3135   23.3857  -79.0517 H         1 UNK         0.0814 
    101 H101      -75.7512   25.9786  -77.9537 H         1 UNK         0.3105 
    102 H102      -74.2788   29.0907  -78.5701 H         1 UNK         0.0547 
    103 H103      -74.1231   28.3145  -80.9298 H         1 UNK         0.0837 
    104 H104      -75.6688   27.4907  -80.7876 H         1 UNK         0.0837 
    105 H105      -75.5865   29.2500  -80.6800 H         1 UNK         0.0837 
    106 H106      -76.9748   27.9686  -78.7523 H         1 UNK         0.3020 
    107 H107      -77.6848   28.2360  -75.3389 H         1 UNK         0.1245 
    108 H108      -78.8583   30.0941  -77.4711 H         1 UNK         0.0781 
    109 H109      -77.9622   30.6903  -76.1094 H         1 UNK         0.0781 
    110 H110      -80.5867   31.0854  -73.4693 H         1 UNK         0.0836 
    111 H111      -79.3002   31.8178  -74.3847 H         1 UNK         0.0836 
    112 H112      -79.4171   27.7104  -77.4990 H         1 UNK         0.3022 
    113 H113      -80.1250   25.5678  -77.8107 H         1 UNK         0.0747 
    114 H114      -79.2279   24.4003  -79.8481 H         1 UNK         0.0793 
    115 H115      -78.6013   26.0365  -79.7626 H         1 UNK         0.0793 
    116 H116      -77.5769   24.6813  -79.3042 H         1 UNK         0.0793 
    117 H117      -78.2970   23.7311  -76.5237 H         1 UNK         0.3047 
    118 H118      -80.8892   21.2835  -76.2518 H         1 UNK         0.0822 
    119 H119      -78.9350   19.7398  -76.3976 H         1 UNK         0.0807 
    120 H120      -77.9880   20.9969  -77.1934 H         1 UNK         0.0807 
    121 H121      -79.4130   20.3405  -77.9774 H         1 UNK         0.0807 
    122 H122      -80.2175   22.0082  -74.2905 H         1 UNK         0.2946 
    123 H123      -78.7791   22.0108  -72.4822 H         1 UNK         0.1144 
    124 H124      -76.6996   22.8733  -71.4266 H         1 UNK         0.0793 
    125 H125      -76.0882   23.3880  -72.9981 H         1 UNK         0.0793 
    126 H126      -76.3197   21.6812  -72.6601 H         1 UNK         0.0793 
    127 H127      -78.0390   24.8160  -72.6135 H         1 UNK         0.2896 
@<TRIPOS>BOND
     1    1    2 1    
     2    1   67 1    
     3    1   68 1    
     4    1   69 1    
     5    2    3 2    
     6    2    4 am   BACKBONE|DICT|INTERRES
     7    4    5 1    
     8    4   70 1    
     9    5    6 1    
    10    5   65 1    
    11    5   71 1    
    12    6    7 1    
    13    6   72 1    
    14    6   73 1    
    15    7    8 1    
    16    8    9 1    
    17    8   74 1    
    18    8   75 1    
    19    9   10 ar   
    20    9   14 ar   
    21   10   11 ar   
    22   10   76 1    
    23   11   12 ar   
    24   11   48 1    
    25   12   13 ar   
    26   12   77 1    
    27   13   14 ar   
    28   13   15 1    
    29   14   78 1    
    30   15   16 1    
    31   15   79 1    
    32   15   80 1    
    33   16   17 1    
    34   17   18 1    
    35   17   81 1    
    36   17   82 1    
    37   18   19 1    
    38   18   22 1    
    39   18   83 1    
    40   19   20 am   BACKBONE|DICT|INTERRES
    41   19   21 2    
    42   20   84 1    
    43   20   85 1    
    44   22   23 am   BACKBONE|DICT|INTERRES
    45   22   86 1    
    46   23   24 2    
    47   23   25 1    
    48   25   26 1    
    49   25   27 1    
    50   25   87 1    
    51   26   88 1    
    52   26   89 1    
    53   26   90 1    
    54   27   28 am   BACKBONE|DICT|INTERRES
    55   27   91 1    
    56   28   29 2    
    57   28   30 1    
    58   30   31 1    
    59   30   32 1    
    60   30   92 1    
    61   31   93 1    
    62   31   94 1    
    63   31   95 1    
    64   32   33 am   BACKBONE|DICT|INTERRES
    65   32   96 1    
    66   33   34 2    
    67   33   35 1    
    68   35   36 1    
    69   35   37 1    
    70   35   97 1    
    71   36   98 1    
    72   36   99 1    
    73   36  100 1    
    74   37   38 am   BACKBONE|DICT|INTERRES
    75   37  101 1    
    76   38   39 2    
    77   38   40 1    
    78   40   41 1    
    79   40   42 1    
    80   40  102 1    
    81   41  103 1    
    82   41  104 1    
    83   41  105 1    
    84   42   43 am   BACKBONE|DICT|INTERRES
    85   42  106 1    
    86   43   44 2    
    87   43   45 1    
    88   45   46 1    
    89   45   49 1    
    90   45  107 1    
    91   46   47 1    
    92   46  108 1    
    93   46  109 1    
    94   47   48 1    
    95   48  110 1    
    96   48  111 1    
    97   49   50 am   BACKBONE|DICT|INTERRES
    98   49  112 1    
    99   50   51 2    
   100   50   52 1    
   101   52   53 1    
   102   52   54 1    
   103   52  113 1    
   104   53  114 1    
   105   53  115 1    
   106   53  116 1    
   107   54   55 am   BACKBONE|DICT|INTERRES
   108   54  117 1    
   109   55   56 2    
   110   55   57 1    
   111   57   58 1    
   112   57   59 1    
   113   57  118 1    
   114   58  119 1    
   115   58  120 1    
   116   58  121 1    
   117   59   60 am   BACKBONE|DICT|INTERRES
   118   59  122 1    
   119   60   61 2    
   120   60   62 1    
   121   62   63 1    
   122   62   64 1    
   123   62  123 1    
   124   63  124 1    
   125   63  125 1    
   126   63  126 1    
   127   64   65 am   BACKBONE|DICT|INTERRES
   128   64  127 1    
   129   65   66 2    
@<TRIPOS>SUBSTRUCTURE
     1 UNK         1 GROUP             0       ****    0 ROOT    
