@<TRIPOS>MOLECULE
3R135
127   129    1
SMALL
USER_CHARGES


@<TRIPOS>ATOM
      1 CA        -82.4890   26.5378  -71.6958 C.3       0 UNK        -0.1998 
      2 C         -82.3680   27.4572  -72.9013 C.2       0 UNK         0.4909 
      3 O         -83.3811   27.8284  -73.4941 O.2       0 UNK        -0.5240 
      4 N         -81.1321   27.8164  -73.2738 N.am      1 UNK        -0.4739 
      5 CA        -80.8231   28.6618  -74.4383 C.3       1 UNK         0.0864 
      6 C6        -79.5189   29.4822  -74.2423 C.3       11 UNK        -0.0881 
      7 S7        -79.7124   30.7183  -72.9055 S.3       11 UNK        -0.2682 
      8 C8        -78.0087   30.9218  -72.2644 C.3       11 UNK         0.0289 
      9 C9        -77.4798   29.8081  -71.3543 C.ar      11 UNK        -0.0687 
     10 C10       -78.1794   28.6198  -71.1260 C.ar      11 UNK        -0.0823 
     11 C11       -77.6165   27.5841  -70.3788 C.ar      11 UNK        -0.0830 
     12 C12       -76.3623   27.7653  -69.7925 C.ar      11 UNK        -0.1021 
     13 C13       -75.6638   28.9662  -69.9564 C.ar      11 UNK        -0.0753 
     14 C14       -76.2340   29.9796  -70.7412 C.ar      11 UNK        -0.0933 
     15 C15       -74.3206   29.1253  -69.2392 C.3       11 UNK         0.0166 
     16 S16       -73.2342   30.4628  -69.8477 S.3       11 UNK        -0.2615 
     17 C17       -72.6586   29.7979  -71.4486 C.3       11 UNK        -0.0865 
     18 CA        -73.0756   30.6768  -72.6559 C.3       10 UNK         0.0862 
     19 C         -72.3090   32.0284  -72.6954 C.2       10 UNK         0.5551 
     20 N         -72.9538   33.1266  -72.3263 N.am      10 UNK        -0.7319 
     21 O         -71.1274   32.0803  -73.0320 O.2       10 UNK        -0.5018 
     22 N         -72.8999   29.9320  -73.9051 N.am      10 UNK        -0.4509 
     23 C         -73.4139   30.2720  -75.0906 C.2       10 UNK         0.4899 
     24 O         -74.1911   31.2135  -75.2513 O.2       10 UNK        -0.4839 
     25 CA        -73.0053   29.4291  -76.3136 C.3       9 UNK         0.0222 
     26 CB        -71.7937   30.0542  -77.0314 C.3       9 UNK        -0.1966 
     27 N         -72.7921   27.9966  -76.0539 N.am      9 UNK        -0.4218 
     28 C         -71.8471   27.3895  -75.3195 C.2       9 UNK         0.5020 
     29 O         -70.9734   27.9953  -74.6973 O.2       9 UNK        -0.5274 
     30 CA        -71.8977   25.8529  -75.2109 C.3       8 UNK         0.0270 
     31 CB        -72.3386   25.4415  -73.7958 C.3       8 UNK        -0.1976 
     32 N         -72.7826   25.2156  -76.1908 N.am      8 UNK        -0.4313 
     33 C         -72.5267   25.1048  -77.5020 C.2       8 UNK         0.5041 
     34 O         -71.4684   25.4546  -78.0255 O.2       8 UNK        -0.5577 
     35 CA        -73.6629   24.5561  -78.3846 C.3       7 UNK         0.0284 
     36 CB        -73.6750   23.0196  -78.3695 C.3       7 UNK        -0.1958 
     37 N         -74.9825   25.0688  -77.9979 N.am      7 UNK        -0.4454 
     38 C         -75.3405   26.3609  -78.0457 C.2       7 UNK         0.5089 
     39 O         -74.6110   27.2574  -78.4660 O.2       7 UNK        -0.5125 
     40 CA        -76.7215   26.7276  -77.4829 C.3       6 UNK         0.0408 
     41 CB        -77.8188   26.5172  -78.5351 C.3       6 UNK        -0.1791 
     42 N         -77.0222   25.9836  -76.2562 N.am      6 UNK        -0.4762 
     43 C         -76.4624   26.2618  -75.0687 C.2       6 UNK         0.5007 
     44 O         -75.7329   27.2340  -74.8772 O.2       6 UNK        -0.5032 
     45 CA        -76.7104   25.2771  -73.9078 C.3       5 UNK         0.0783 
     46 C46       -77.8860   25.7281  -73.0113 C.3       11 UNK        -0.0857 
     47 S47       -77.7701   24.9669  -71.3533 S.3       11 UNK        -0.2512 
     48 C48       -78.3698   26.2700  -70.2217 C.3       11 UNK         0.0225 
     49 N         -76.8837   23.9020  -74.3828 N.am      5 UNK        -0.4615 
     50 C         -75.8857   23.1443  -74.8550 C.2       4 UNK         0.5053 
     51 O         -74.7196   23.5277  -74.9282 O.2       4 UNK        -0.5105 
     52 CA        -76.2492   21.7439  -75.3776 C.3       4 UNK         0.0263 
     53 CB        -76.2053   20.7181  -74.2346 C.3       4 UNK        -0.1981 
     54 N         -77.5554   21.6847  -76.0390 N.am      4 UNK        -0.4224 
     55 C         -77.9058   22.4011  -77.1163 C.2       3 UNK         0.4895 
     56 O         -77.1472   23.1879  -77.6854 O.2       3 UNK        -0.5091 
     57 CA        -79.3508   22.2560  -77.6320 C.3       3 UNK         0.0250 
     58 CB        -80.1796   21.1712  -76.9051 C.3       3 UNK        -0.1996 
     59 N         -80.0682   23.5378  -77.6141 N.am      3 UNK        -0.4254 
     60 C         -80.2526   24.3396  -76.5547 C.2       2 UNK         0.5004 
     61 O         -79.8055   24.1114  -75.4270 O.2       2 UNK        -0.5226 
     62 CA        -81.0915   25.6002  -76.7984 C.3       2 UNK         0.0269 
     63 CB        -82.5834   25.2450  -76.9285 C.3       2 UNK        -0.1926 
     64 N         -80.9257   26.5253  -75.6791 N.am      2 UNK        -0.4687 
     65 C         -80.8269   27.8589  -75.7616 C.2       1 UNK         0.5165 
     66 O         -80.7772   28.4660  -76.8320 O.2       1 UNK        -0.5079 
     67 H67       -81.5580   26.0096  -71.4938 H         1 UNK         0.0900 
     68 H68       -83.2639   25.7910  -71.8677 H         1 UNK         0.0900 
     69 H69       -82.7602   27.1124  -70.8105 H         1 UNK         0.0900 
     70 H70       -80.3405   27.4780  -72.7509 H         1 UNK         0.2959 
     71 H71       -81.6349   29.3846  -74.5520 H         1 UNK         0.1079 
     72 H72       -79.2647   30.0283  -75.1531 H         1 UNK         0.0837 
     73 H73       -78.6704   28.8283  -74.0361 H         1 UNK         0.0837 
     74 H74       -77.3289   31.0407  -73.1097 H         1 UNK         0.0685 
     75 H75       -77.9766   31.8611  -71.7105 H         1 UNK         0.0685 
     76 H76       -79.1554   28.4729  -71.5561 H         1 UNK         0.1434 
     77 H77       -75.9319   26.9679  -69.2015 H         1 UNK         0.1329 
     78 H78       -75.7146   30.9160  -70.8800 H         1 UNK         0.1335 
     79 H79       -73.7665   28.1859  -69.2778 H         1 UNK         0.0680 
     80 H80       -74.5252   29.3148  -68.1847 H         1 UNK         0.0680 
     81 H81       -71.5742   29.6762  -71.4125 H         1 UNK         0.1032 
     82 H82       -73.0645   28.7922  -71.5712 H         1 UNK         0.1032 
     83 H83       -74.1428   30.8864  -72.5708 H         1 UNK         0.0461 
     84 H84       -72.4663   34.0088  -72.3357 H         1 UNK         0.3453 
     85 H85       -73.9176   33.0898  -72.0345 H         1 UNK         0.3453 
     86 H86       -72.1954   29.2003  -73.9065 H         1 UNK         0.2984 
     87 H87       -73.8485   29.4702  -77.0046 H         1 UNK         0.0554 
     88 H88       -71.5469   29.5067  -77.9411 H         1 UNK         0.0847 
     89 H89       -70.9069   30.0707  -76.3971 H         1 UNK         0.0847 
     90 H90       -72.0027   31.0852  -77.3198 H         1 UNK         0.0847 
     91 H91       -73.4759   27.3965  -76.4966 H         1 UNK         0.3141 
     92 H92       -70.8840   25.4819  -75.3756 H         1 UNK         0.0743 
     93 H93       -72.3274   24.3580  -73.6753 H         1 UNK         0.0784 
     94 H94       -71.6712   25.8569  -73.0395 H         1 UNK         0.0784 
     95 H95       -73.3458   25.7940  -73.5711 H         1 UNK         0.0784 
     96 H96       -73.6370   24.7990  -75.8264 H         1 UNK         0.3213 
     97 H97       -73.4729   24.8837  -79.4090 H         1 UNK         0.0855 
     98 H98       -72.7295   22.6210  -78.7394 H         1 UNK         0.0814 
     99 H99       -74.4666   22.6208  -79.0042 H         1 UNK         0.0814 
    100 H100      -73.8205   22.6263  -77.3640 H         1 UNK         0.0814 
    101 H101      -75.6774   24.3857  -77.7050 H         1 UNK         0.3105 
    102 H102      -76.7027   27.7936  -77.2442 H         1 UNK         0.0547 
    103 H103      -77.5462   26.9868  -79.4813 H         1 UNK         0.0837 
    104 H104      -78.0023   25.4626  -78.7383 H         1 UNK         0.0837 
    105 H105      -78.7516   26.9771  -78.2155 H         1 UNK         0.0837 
    106 H106      -77.5671   25.1364  -76.3476 H         1 UNK         0.3020 
    107 H107      -75.8004   25.3076  -73.3031 H         1 UNK         0.1245 
    108 H108      -78.8482   25.4744  -73.4555 H         1 UNK         0.0781 
    109 H109      -77.8765   26.8099  -72.9175 H         1 UNK         0.0781 
    110 H110      -78.2685   25.9150  -69.1951 H         1 UNK         0.0836 
    111 H111      -79.4381   26.4186  -70.3806 H         1 UNK         0.0836 
    112 H112      -77.8319   23.5475  -74.4028 H         1 UNK         0.3022 
    113 H113      -75.4964   21.4622  -76.1159 H         1 UNK         0.0747 
    114 H114      -76.3703   19.7052  -74.6024 H         1 UNK         0.0793 
    115 H115      -75.2323   20.7268  -73.7410 H         1 UNK         0.0793 
    116 H116      -76.9583   20.9275  -73.4736 H         1 UNK         0.0793 
    117 H117      -78.2493   21.0808  -75.6230 H         1 UNK         0.3047 
    118 H118      -79.2657   21.9607  -78.6789 H         1 UNK         0.0822 
    119 H119      -80.3281   21.4008  -75.8490 H         1 UNK         0.0807 
    120 H120      -79.7027   20.1925  -76.9742 H         1 UNK         0.0807 
    121 H121      -81.1669   21.0713  -77.3565 H         1 UNK         0.0807 
    122 H122      -80.4545   23.8243  -78.5029 H         1 UNK         0.2946 
    123 H123      -80.7561   26.0636  -77.7272 H         1 UNK         0.1144 
    124 H124      -82.7602   24.5687  -77.7657 H         1 UNK         0.0793 
    125 H125      -82.9607   24.7574  -76.0285 H         1 UNK         0.0793 
    126 H126      -83.1876   26.1358  -77.1019 H         1 UNK         0.0793 
    127 H127      -80.8980   26.0876  -74.7687 H         1 UNK         0.2896 
@<TRIPOS>BOND
     1    1    2 1    
     2    1   67 1    
     3    1   68 1    
     4    1   69 1    
     5    2    3 2    
     6    2    4 am   BACKBONE|DICT|INTERRES
     7    4    5 1    
     8    4   70 1    
     9    5    6 1    
    10    5   65 1    
    11    5   71 1    
    12    6    7 1    
    13    6   72 1    
    14    6   73 1    
    15    7    8 1    
    16    8    9 1    
    17    8   74 1    
    18    8   75 1    
    19    9   10 ar   
    20    9   14 ar   
    21   10   11 ar   
    22   10   76 1    
    23   11   12 ar   
    24   11   48 1    
    25   12   13 ar   
    26   12   77 1    
    27   13   14 ar   
    28   13   15 1    
    29   14   78 1    
    30   15   16 1    
    31   15   79 1    
    32   15   80 1    
    33   16   17 1    
    34   17   18 1    
    35   17   81 1    
    36   17   82 1    
    37   18   19 1    
    38   18   22 1    
    39   18   83 1    
    40   19   20 am   BACKBONE|DICT|INTERRES
    41   19   21 2    
    42   20   84 1    
    43   20   85 1    
    44   22   23 am   BACKBONE|DICT|INTERRES
    45   22   86 1    
    46   23   24 2    
    47   23   25 1    
    48   25   26 1    
    49   25   27 1    
    50   25   87 1    
    51   26   88 1    
    52   26   89 1    
    53   26   90 1    
    54   27   28 am   BACKBONE|DICT|INTERRES
    55   27   91 1    
    56   28   29 2    
    57   28   30 1    
    58   30   31 1    
    59   30   32 1    
    60   30   92 1    
    61   31   93 1    
    62   31   94 1    
    63   31   95 1    
    64   32   33 am   BACKBONE|DICT|INTERRES
    65   32   96 1    
    66   33   34 2    
    67   33   35 1    
    68   35   36 1    
    69   35   37 1    
    70   35   97 1    
    71   36   98 1    
    72   36   99 1    
    73   36  100 1    
    74   37   38 am   BACKBONE|DICT|INTERRES
    75   37  101 1    
    76   38   39 2    
    77   38   40 1    
    78   40   41 1    
    79   40   42 1    
    80   40  102 1    
    81   41  103 1    
    82   41  104 1    
    83   41  105 1    
    84   42   43 am   BACKBONE|DICT|INTERRES
    85   42  106 1    
    86   43   44 2    
    87   43   45 1    
    88   45   46 1    
    89   45   49 1    
    90   45  107 1    
    91   46   47 1    
    92   46  108 1    
    93   46  109 1    
    94   47   48 1    
    95   48  110 1    
    96   48  111 1    
    97   49   50 am   BACKBONE|DICT|INTERRES
    98   49  112 1    
    99   50   51 2    
   100   50   52 1    
   101   52   53 1    
   102   52   54 1    
   103   52  113 1    
   104   53  114 1    
   105   53  115 1    
   106   53  116 1    
   107   54   55 am   BACKBONE|DICT|INTERRES
   108   54  117 1    
   109   55   56 2    
   110   55   57 1    
   111   57   58 1    
   112   57   59 1    
   113   57  118 1    
   114   58  119 1    
   115   58  120 1    
   116   58  121 1    
   117   59   60 am   BACKBONE|DICT|INTERRES
   118   59  122 1    
   119   60   61 2    
   120   60   62 1    
   121   62   63 1    
   122   62   64 1    
   123   62  123 1    
   124   63  124 1    
   125   63  125 1    
   126   63  126 1    
   127   64   65 am   BACKBONE|DICT|INTERRES
   128   64  127 1    
   129   65   66 2    
@<TRIPOS>SUBSTRUCTURE
     1 UNK         1 GROUP             0       ****    0 ROOT    
