@<TRIPOS>MOLECULE
3R135
127   129    1
SMALL
USER_CHARGES


@<TRIPOS>ATOM
      1 CA        -78.6338   29.5012  -77.6535 C.3       0 UNK        -0.1998 
      2 C         -78.8399   28.5797  -76.4610 C.2       0 UNK         0.4909 
      3 O         -78.1508   27.5681  -76.3460 O.2       0 UNK        -0.5240 
      4 N         -79.7822   28.9250  -75.5748 N.am      1 UNK        -0.4739 
      5 CA        -80.1647   28.1224  -74.4076 C.3       1 UNK         0.0864 
      6 C6        -81.0207   28.9304  -73.3964 C.3       11 UNK        -0.0881 
      7 S7        -80.2854   30.5285  -72.9024 S.3       11 UNK        -0.2682 
      8 C8        -79.5855   30.1531  -71.2640 C.3       11 UNK         0.0289 
      9 C9        -78.2633   29.4116  -71.3799 C.ar      11 UNK        -0.0687 
     10 C10       -78.1969   28.0346  -71.1484 C.ar      11 UNK        -0.0823 
     11 C11       -76.9825   27.3521  -71.2784 C.ar      11 UNK        -0.0830 
     12 C12       -75.8288   28.0600  -71.6267 C.ar      11 UNK        -0.1021 
     13 C13       -75.8817   29.4390  -71.8432 C.ar      11 UNK        -0.0753 
     14 C14       -77.1006   30.1103  -71.7191 C.ar      11 UNK        -0.0933 
     15 C15       -74.6253   30.1929  -72.2395 C.3       11 UNK         0.0166 
     16 S16       -73.6039   30.6160  -70.7975 S.3       11 UNK        -0.2615 
     17 C17       -72.1877   31.4350  -71.6172 C.3       11 UNK        -0.0865 
     18 CA        -70.8809   30.5859  -71.6588 C.3       10 UNK         0.0862 
     19 C         -70.2175   30.4381  -70.2620 C.2       10 UNK         0.5551 
     20 N         -69.7306   31.5296  -69.6875 N.am      10 UNK        -0.7319 
     21 O         -70.1368   29.3488  -69.6948 O.2       10 UNK        -0.5018 
     22 N         -71.0618   29.2675  -72.2821 N.am      10 UNK        -0.4509 
     23 C         -71.2304   28.9393  -73.5681 C.2       10 UNK         0.4899 
     24 O         -71.3819   27.7674  -73.9101 O.2       10 UNK        -0.4839 
     25 CA        -71.2657   30.0217  -74.6603 C.3       9 UNK         0.0222 
     26 CB        -70.2598   29.7205  -75.7857 C.3       9 UNK        -0.1966 
     27 N         -72.6172   30.0379  -75.2082 N.am      9 UNK        -0.4218 
     28 C         -73.3262   31.1256  -75.5230 C.2       9 UNK         0.5020 
     29 O         -72.8781   32.2720  -75.4627 O.2       9 UNK        -0.5274 
     30 CA        -74.7834   30.8869  -75.9724 C.3       8 UNK         0.0270 
     31 CB        -75.5139   32.1921  -76.3418 C.3       8 UNK        -0.1976 
     32 N         -74.8772   29.9510  -77.0958 N.am      8 UNK        -0.4313 
     33 C         -74.7780   28.6198  -76.9999 C.2       8 UNK         0.5041 
     34 O         -74.5417   28.0249  -75.9446 O.2       8 UNK        -0.5577 
     35 CA        -74.9152   27.8348  -78.3062 C.3       7 UNK         0.0284 
     36 CB        -73.5681   27.7567  -79.0463 C.3       7 UNK        -0.1958 
     37 N         -75.3853   26.4906  -77.9954 N.am      7 UNK        -0.4454 
     38 C         -76.1559   25.7342  -78.7804 C.2       7 UNK         0.5089 
     39 O         -76.5180   26.0819  -79.9058 O.2       7 UNK        -0.5125 
     40 CA        -76.6176   24.3621  -78.2517 C.3       6 UNK         0.0408 
     41 CB        -75.7149   23.2336  -78.7857 C.3       6 UNK        -0.1791 
     42 N         -76.7933   24.2549  -76.7972 N.am      6 UNK        -0.4762 
     43 C         -75.8763   24.2809  -75.8173 C.2       6 UNK         0.5007 
     44 O         -74.6761   24.4865  -75.9956 O.2       6 UNK        -0.5032 
     45 CA        -76.4018   23.9917  -74.4000 C.3       5 UNK         0.0783 
     46 C46       -77.1007   25.2442  -73.8112 C.3       11 UNK        -0.0857 
     47 S47       -77.9372   24.9215  -72.2197 S.3       11 UNK        -0.2512 
     48 C48       -76.9122   25.8509  -71.0389 C.3       11 UNK         0.0225 
     49 N         -77.2761   22.8157  -74.4405 N.am      5 UNK        -0.4615 
     50 C         -76.8531   21.5449  -74.4255 C.2       4 UNK         0.5053 
     51 O         -75.6703   21.2219  -74.3133 O.2       4 UNK        -0.5105 
     52 CA        -77.9211   20.4398  -74.5394 C.3       4 UNK         0.0263 
     53 CB        -78.2801   19.9018  -73.1446 C.3       4 UNK        -0.1981 
     54 N         -79.1452   20.8881  -75.2068 N.am      4 UNK        -0.4224 
     55 C         -79.2662   21.0959  -76.5262 C.2       3 UNK         0.4895 
     56 O         -78.3884   20.8281  -77.3464 O.2       3 UNK        -0.5091 
     57 CA        -80.5803   21.7429  -77.0096 C.3       3 UNK         0.0250 
     58 CB        -81.5857   20.6627  -77.4396 C.3       3 UNK        -0.1996 
     59 N         -81.2094   22.6300  -76.0195 N.am      3 UNK        -0.4254 
     60 C         -80.6307   23.7269  -75.5112 C.2       2 UNK         0.5004 
     61 O         -79.5038   24.1043  -75.8375 O.2       2 UNK        -0.5226 
     62 CA        -81.4026   24.4678  -74.4054 C.3       2 UNK         0.0269 
     63 CB        -81.4436   23.6256  -73.1178 C.3       2 UNK        -0.1926 
     64 N         -80.7895   25.7635  -74.0972 N.am      2 UNK        -0.4687 
     65 C         -80.9362   26.8597  -74.8514 C.2       1 UNK         0.5165 
     66 O         -81.6880   26.9138  -75.8297 O.2       1 UNK        -0.5079 
     67 H67       -78.6291   28.9227  -78.5772 H         1 UNK         0.0900 
     68 H68       -77.6791   30.0163  -77.5689 H         1 UNK         0.0900 
     69 H69       -79.4206   30.2517  -77.7282 H         1 UNK         0.0900 
     70 H70       -80.3230   29.7653  -75.7182 H         1 UNK         0.2959 
     71 H71       -79.2447   27.8067  -73.9099 H         1 UNK         0.1079 
     72 H72       -82.0012   29.1509  -73.8238 H         1 UNK         0.0837 
     73 H73       -81.2157   28.3341  -72.5031 H         1 UNK         0.0837 
     74 H74       -79.4239   31.0911  -70.7306 H         1 UNK         0.0685 
     75 H75       -80.3047   29.5878  -70.6693 H         1 UNK         0.0685 
     76 H76       -79.0908   27.4886  -70.8794 H         1 UNK         0.1434 
     77 H77       -74.8854   27.5410  -71.7304 H         1 UNK         0.1329 
     78 H78       -77.1495   31.1760  -71.8967 H         1 UNK         0.1335 
     79 H79       -74.8841   31.1061  -72.7773 H         1 UNK         0.0680 
     80 H80       -74.0449   29.5747  -72.9228 H         1 UNK         0.0680 
     81 H81       -72.0080   32.3816  -71.1048 H         1 UNK         0.1032 
     82 H82       -72.4788   31.7259  -72.6258 H         1 UNK         0.1032 
     83 H83       -70.1402   31.1223  -72.2534 H         1 UNK         0.0461 
     84 H84       -69.7782   32.4285  -70.1414 H         1 UNK         0.3453 
     85 H85       -69.2975   31.4514  -68.7804 H         1 UNK         0.3453 
     86 H86       -71.0192   28.5206  -71.6010 H         1 UNK         0.2984 
     87 H87       -71.0157   30.9991  -74.2527 H         1 UNK         0.0554 
     88 H88       -70.2797   30.4970  -76.5505 H         1 UNK         0.0847 
     89 H89       -70.4682   28.7675  -76.2740 H         1 UNK         0.0847 
     90 H90       -69.2422   29.6739  -75.3960 H         1 UNK         0.0847 
     91 H91       -73.0808   29.1326  -75.2809 H         1 UNK         0.3141 
     92 H92       -75.3122   30.4501  -75.1227 H         1 UNK         0.0743 
     93 H93       -76.5600   32.0086  -76.5866 H         1 UNK         0.0784 
     94 H94       -75.5012   32.8960  -75.5084 H         1 UNK         0.0784 
     95 H95       -75.0496   32.6882  -77.1949 H         1 UNK         0.0784 
     96 H96       -75.0004   30.3637  -78.0097 H         1 UNK         0.3213 
     97 H97       -75.6523   28.3401  -78.9343 H         1 UNK         0.0855 
     98 H98       -72.8088   27.2558  -78.4440 H         1 UNK         0.0814 
     99 H99       -73.1914   28.7517  -79.2861 H         1 UNK         0.0814 
    100 H100      -73.6627   27.2118  -79.9857 H         1 UNK         0.0814 
    101 H101      -75.1370   26.1493  -77.0708 H         1 UNK         0.3105 
    102 H102      -77.6148   24.1998  -78.6639 H         1 UNK         0.0547 
    103 H103      -75.6810   23.2459  -79.8757 H         1 UNK         0.0837 
    104 H104      -74.6888   23.3292  -78.4298 H         1 UNK         0.0837 
    105 H105      -76.0863   22.2540  -78.4841 H         1 UNK         0.0837 
    106 H106      -77.7642   24.1582  -76.5018 H         1 UNK         0.3020 
    107 H107      -75.5402   23.7626  -73.7684 H         1 UNK         0.1245 
    108 H108      -77.8555   25.6268  -74.4987 H         1 UNK         0.0781 
    109 H109      -76.3780   26.0537  -73.6957 H         1 UNK         0.0781 
    110 H110      -75.8846   25.4885  -71.0963 H         1 UNK         0.0836 
    111 H111      -77.2571   25.6363  -70.0266 H         1 UNK         0.0836 
    112 H112      -78.2551   23.0109  -74.6027 H         1 UNK         0.3022 
    113 H113      -77.4893   19.6226  -75.1215 H         1 UNK         0.0747 
    114 H114      -78.9871   19.0743  -73.2076 H         1 UNK         0.0793 
    115 H115      -77.3929   19.5291  -72.6306 H         1 UNK         0.0793 
    116 H116      -78.7207   20.6751  -72.5137 H         1 UNK         0.0793 
    117 H117      -79.9304   21.1140  -74.6145 H         1 UNK         0.3047 
    118 H118      -80.3355   22.3501  -77.8839 H         1 UNK         0.0822 
    119 H119      -82.4815   21.1046  -77.8766 H         1 UNK         0.0807 
    120 H120      -81.8930   20.0380  -76.5999 H         1 UNK         0.0807 
    121 H121      -81.1519   20.0042  -78.1937 H         1 UNK         0.0807 
    122 H122      -82.1336   22.3714  -75.7034 H         1 UNK         0.2946 
    123 H123      -82.4251   24.6330  -74.7536 H         1 UNK         0.1144 
    124 H124      -81.9512   24.1576  -72.3128 H         1 UNK         0.0793 
    125 H125      -80.4437   23.3676  -72.7676 H         1 UNK         0.0793 
    126 H126      -81.9849   22.6914  -73.2713 H         1 UNK         0.0793 
    127 H127      -80.1262   25.7724  -73.3347 H         1 UNK         0.2896 
@<TRIPOS>BOND
     1    1    2 1    
     2    1   67 1    
     3    1   68 1    
     4    1   69 1    
     5    2    3 2    
     6    2    4 am   BACKBONE|DICT|INTERRES
     7    4    5 1    
     8    4   70 1    
     9    5    6 1    
    10    5   65 1    
    11    5   71 1    
    12    6    7 1    
    13    6   72 1    
    14    6   73 1    
    15    7    8 1    
    16    8    9 1    
    17    8   74 1    
    18    8   75 1    
    19    9   10 ar   
    20    9   14 ar   
    21   10   11 ar   
    22   10   76 1    
    23   11   12 ar   
    24   11   48 1    
    25   12   13 ar   
    26   12   77 1    
    27   13   14 ar   
    28   13   15 1    
    29   14   78 1    
    30   15   16 1    
    31   15   79 1    
    32   15   80 1    
    33   16   17 1    
    34   17   18 1    
    35   17   81 1    
    36   17   82 1    
    37   18   19 1    
    38   18   22 1    
    39   18   83 1    
    40   19   20 am   BACKBONE|DICT|INTERRES
    41   19   21 2    
    42   20   84 1    
    43   20   85 1    
    44   22   23 am   BACKBONE|DICT|INTERRES
    45   22   86 1    
    46   23   24 2    
    47   23   25 1    
    48   25   26 1    
    49   25   27 1    
    50   25   87 1    
    51   26   88 1    
    52   26   89 1    
    53   26   90 1    
    54   27   28 am   BACKBONE|DICT|INTERRES
    55   27   91 1    
    56   28   29 2    
    57   28   30 1    
    58   30   31 1    
    59   30   32 1    
    60   30   92 1    
    61   31   93 1    
    62   31   94 1    
    63   31   95 1    
    64   32   33 am   BACKBONE|DICT|INTERRES
    65   32   96 1    
    66   33   34 2    
    67   33   35 1    
    68   35   36 1    
    69   35   37 1    
    70   35   97 1    
    71   36   98 1    
    72   36   99 1    
    73   36  100 1    
    74   37   38 am   BACKBONE|DICT|INTERRES
    75   37  101 1    
    76   38   39 2    
    77   38   40 1    
    78   40   41 1    
    79   40   42 1    
    80   40  102 1    
    81   41  103 1    
    82   41  104 1    
    83   41  105 1    
    84   42   43 am   BACKBONE|DICT|INTERRES
    85   42  106 1    
    86   43   44 2    
    87   43   45 1    
    88   45   46 1    
    89   45   49 1    
    90   45  107 1    
    91   46   47 1    
    92   46  108 1    
    93   46  109 1    
    94   47   48 1    
    95   48  110 1    
    96   48  111 1    
    97   49   50 am   BACKBONE|DICT|INTERRES
    98   49  112 1    
    99   50   51 2    
   100   50   52 1    
   101   52   53 1    
   102   52   54 1    
   103   52  113 1    
   104   53  114 1    
   105   53  115 1    
   106   53  116 1    
   107   54   55 am   BACKBONE|DICT|INTERRES
   108   54  117 1    
   109   55   56 2    
   110   55   57 1    
   111   57   58 1    
   112   57   59 1    
   113   57  118 1    
   114   58  119 1    
   115   58  120 1    
   116   58  121 1    
   117   59   60 am   BACKBONE|DICT|INTERRES
   118   59  122 1    
   119   60   61 2    
   120   60   62 1    
   121   62   63 1    
   122   62   64 1    
   123   62  123 1    
   124   63  124 1    
   125   63  125 1    
   126   63  126 1    
   127   64   65 am   BACKBONE|DICT|INTERRES
   128   64  127 1    
   129   65   66 2    
@<TRIPOS>SUBSTRUCTURE
     1 UNK         1 GROUP             0       ****    0 ROOT    
