@<TRIPOS>MOLECULE
3R135
127   129    1
SMALL
USER_CHARGES


@<TRIPOS>ATOM
      1 CA        -81.3670   24.9028  -70.3992 C.3       0 UNK        -0.1998 
      2 C         -82.2268   25.7169  -71.3536 C.2       0 UNK         0.4909 
      3 O         -83.3727   25.3457  -71.6102 O.2       0 UNK        -0.5240 
      4 N         -81.6900   26.8303  -71.8714 N.am      1 UNK        -0.4739 
      5 CA        -82.3971   27.7431  -72.7823 C.3       1 UNK         0.0864 
      6 C6        -81.7729   29.1608  -72.8140 C.3       11 UNK        -0.0881 
      7 S7        -81.6703   29.9065  -71.1467 S.3       11 UNK        -0.2682 
      8 C8        -80.1617   30.9330  -71.2495 C.3       11 UNK         0.0289 
      9 C9        -78.9304   30.1723  -71.7319 C.ar      11 UNK        -0.0687 
     10 C10       -78.6035   28.9216  -71.1988 C.ar      11 UNK        -0.0823 
     11 C11       -77.5166   28.2033  -71.6997 C.ar      11 UNK        -0.0830 
     12 C12       -76.7241   28.7621  -72.7055 C.ar      11 UNK        -0.1021 
     13 C13       -77.0148   30.0288  -73.2300 C.ar      11 UNK        -0.0753 
     14 C14       -78.1266   30.7195  -72.7375 C.ar      11 UNK        -0.0933 
     15 C15       -76.1917   30.6847  -74.3447 C.3       11 UNK         0.0166 
     16 S16       -74.6024   29.8827  -74.7605 S.3       11 UNK        -0.2615 
     17 C17       -73.6319   30.1916  -73.2474 C.3       11 UNK        -0.0865 
     18 CA        -72.4795   31.1961  -73.4892 C.3       10 UNK         0.0862 
     19 C         -71.8291   31.6065  -72.1389 C.2       10 UNK         0.5551 
     20 N         -72.2976   32.6862  -71.5285 N.am      10 UNK        -0.7319 
     21 O         -70.9397   30.9324  -71.6221 O.2       10 UNK        -0.5018 
     22 N         -71.4979   30.6615  -74.4446 N.am      10 UNK        -0.4509 
     23 C         -70.4837   31.3511  -74.9738 C.2       10 UNK         0.4899 
     24 O         -70.3297   32.5633  -74.8191 O.2       10 UNK        -0.4839 
     25 CA        -69.4520   30.5758  -75.8137 C.3       9 UNK         0.0222 
     26 CB        -68.3844   29.9376  -74.9031 C.3       9 UNK        -0.1966 
     27 N         -69.9894   29.5929  -76.7689 N.am      9 UNK        -0.4218 
     28 C         -70.6378   28.4430  -76.5349 C.2       9 UNK         0.5020 
     29 O         -71.0152   28.0629  -75.4223 O.2       9 UNK        -0.5274 
     30 CA        -70.8582   27.5444  -77.7589 C.3       8 UNK         0.0270 
     31 CB        -69.5198   26.9103  -78.1990 C.3       8 UNK        -0.1976 
     32 N         -71.8287   26.5073  -77.4154 N.am      8 UNK        -0.4313 
     33 C         -72.3954   25.6382  -78.2616 C.2       8 UNK         0.5041 
     34 O         -72.1803   25.6173  -79.4746 O.2       8 UNK        -0.5577 
     35 CA        -73.3735   24.6177  -77.6565 C.3       7 UNK         0.0284 
     36 CB        -72.6163   23.4187  -77.0632 C.3       7 UNK        -0.1958 
     37 N         -74.2370   25.2031  -76.6319 N.am      7 UNK        -0.4454 
     38 C         -75.2448   26.0479  -76.8764 C.2       7 UNK         0.5089 
     39 O         -75.5642   26.4203  -78.0068 O.2       7 UNK        -0.5125 
     40 CA        -76.0337   26.5363  -75.6481 C.3       6 UNK         0.0408 
     41 CB        -77.1944   27.4767  -76.0257 C.3       6 UNK        -0.1791 
     42 N         -76.5586   25.4307  -74.8439 N.am      6 UNK        -0.4762 
     43 C         -75.8584   24.6992  -73.9623 C.2       6 UNK         0.5007 
     44 O         -74.6506   24.8510  -73.7720 O.2       6 UNK        -0.5032 
     45 CA        -76.6103   23.5966  -73.1893 C.3       5 UNK         0.0783 
     46 C46       -77.2237   24.0842  -71.8484 C.3       11 UNK        -0.0857 
     47 S47       -78.2816   25.5706  -71.9623 S.3       11 UNK        -0.2512 
     48 C48       -77.2076   26.8127  -71.1741 C.3       11 UNK         0.0225 
     49 N         -77.5962   22.9462  -74.0572 N.am      5 UNK        -0.4615 
     50 C         -77.5230   21.6658  -74.4503 C.2       4 UNK         0.5053 
     51 O         -76.6934   20.8626  -74.0223 O.2       4 UNK        -0.5105 
     52 CA        -78.5258   21.1895  -75.5189 C.3       4 UNK         0.0263 
     53 CB        -79.7765   20.5946  -74.8519 C.3       4 UNK        -0.1981 
     54 N         -78.9328   22.2459  -76.4462 N.am      4 UNK        -0.4224 
     55 C         -78.1147   22.9289  -77.2603 C.2       3 UNK         0.4895 
     56 O         -76.9301   22.6435  -77.4356 O.2       3 UNK        -0.5091 
     57 CA        -78.7037   24.1581  -77.9814 C.3       3 UNK         0.0250 
     58 CB        -78.8857   23.8628  -79.4792 C.3       3 UNK        -0.1996 
     59 N         -79.9735   24.6645  -77.4369 N.am      3 UNK        -0.4254 
     60 C         -80.1947   25.0740  -76.1792 C.2       2 UNK         0.5004 
     61 O         -79.3480   25.0302  -75.2812 O.2       2 UNK        -0.5226 
     62 CA        -81.6174   25.5477  -75.8669 C.3       2 UNK         0.0269 
     63 CB        -82.5920   24.3551  -75.8123 C.3       2 UNK        -0.1926 
     64 N         -81.6284   26.2421  -74.5830 N.am      2 UNK        -0.4687 
     65 C         -82.5204   27.1687  -74.2098 C.2       1 UNK         0.5165 
     66 O         -83.4279   27.5686  -74.9414 O.2       1 UNK        -0.5079 
     67 H67       -80.9266   24.0538  -70.9214 H         1 UNK         0.0900 
     68 H68       -81.9707   24.5225  -69.5757 H         1 UNK         0.0900 
     69 H69       -80.5622   25.5015  -69.9735 H         1 UNK         0.0900 
     70 H70       -80.7406   27.0858  -71.6400 H         1 UNK         0.2959 
     71 H71       -83.4189   27.8495  -72.4101 H         1 UNK         0.1079 
     72 H72       -82.3704   29.8270  -73.4394 H         1 UNK         0.0837 
     73 H73       -80.7850   29.1221  -73.2746 H         1 UNK         0.0837 
     74 H74       -79.9528   31.3507  -70.2640 H         1 UNK         0.0685 
     75 H75       -80.3714   31.7793  -71.9056 H         1 UNK         0.0685 
     76 H76       -79.2165   28.4919  -70.4185 H         1 UNK         0.1434 
     77 H77       -75.8891   28.1910  -73.0819 H         1 UNK         0.1329 
     78 H78       -78.3736   31.6884  -73.1501 H         1 UNK         0.1335 
     79 H79       -76.8018   30.7077  -75.2485 H         1 UNK         0.0680 
     80 H80       -75.9915   31.7248  -74.0828 H         1 UNK         0.0680 
     81 H81       -74.2994   30.5552  -72.4635 H         1 UNK         0.1032 
     82 H82       -73.2399   29.2386  -72.8867 H         1 UNK         0.1032 
     83 H83       -72.9054   32.0956  -73.9391 H         1 UNK         0.0461 
     84 H84       -71.9000   32.9603  -70.6436 H         1 UNK         0.3453 
     85 H85       -73.0320   33.2411  -71.9401 H         1 UNK         0.3453 
     86 H86       -71.5265   29.6608  -74.6214 H         1 UNK         0.2984 
     87 H87       -68.9425   31.3187  -76.4297 H         1 UNK         0.0554 
     88 H88       -67.5892   29.4738  -75.4868 H         1 UNK         0.0847 
     89 H89       -68.8093   29.1751  -74.2493 H         1 UNK         0.0847 
     90 H90       -67.9200   30.6882  -74.2621 H         1 UNK         0.0847 
     91 H91       -69.7799   29.8044  -77.7352 H         1 UNK         0.3141 
     92 H92       -71.2679   28.1516  -78.5687 H         1 UNK         0.0743 
     93 H93       -68.7713   27.6715  -78.4220 H         1 UNK         0.0784 
     94 H94       -69.1074   26.2673  -77.4202 H         1 UNK         0.0784 
     95 H95       -69.6325   26.3092  -79.1010 H         1 UNK         0.0784 
     96 H96       -72.0707   26.4880  -76.4312 H         1 UNK         0.3213 
     97 H97       -74.0107   24.2487  -78.4637 H         1 UNK         0.0855 
     98 H98       -71.9806   23.7127  -76.2270 H         1 UNK         0.0814 
     99 H99       -71.9752   22.9534  -77.8132 H         1 UNK         0.0814 
    100 H100      -73.3064   22.6529  -76.7080 H         1 UNK         0.0814 
    101 H101      -74.0711   24.9436  -75.6641 H         1 UNK         0.3105 
    102 H102      -75.3330   27.0998  -75.0325 H         1 UNK         0.0547 
    103 H103      -77.7574   27.7917  -75.1477 H         1 UNK         0.0837 
    104 H104      -76.8201   28.3776  -76.5127 H         1 UNK         0.0837 
    105 H105      -77.8950   27.0054  -76.7133 H         1 UNK         0.0837 
    106 H106      -77.5570   25.2583  -74.9379 H         1 UNK         0.3020 
    107 H107      -75.8396   22.8702  -72.9210 H         1 UNK         0.1245 
    108 H108      -76.4250   24.2656  -71.1274 H         1 UNK         0.0781 
    109 H109      -77.8210   23.2835  -71.4098 H         1 UNK         0.0781 
    110 H110      -76.1593   26.5757  -71.3627 H         1 UNK         0.0836 
    111 H111      -77.3423   26.7765  -70.0921 H         1 UNK         0.0836 
    112 H112      -78.3117   23.5474  -74.4533 H         1 UNK         0.3022 
    113 H113      -78.0383   20.4061  -76.1029 H         1 UNK         0.0747 
    114 H114      -80.4620   20.1791  -75.5908 H         1 UNK         0.0793 
    115 H115      -79.5075   19.7854  -74.1714 H         1 UNK         0.0793 
    116 H116      -80.3190   21.3419  -74.2710 H         1 UNK         0.0793 
    117 H117      -79.8911   22.5546  -76.3833 H         1 UNK         0.3047 
    118 H118      -77.9673   24.9565  -77.8836 H         1 UNK         0.0822 
    119 H119      -77.9518   23.5187  -79.9265 H         1 UNK         0.0807 
    120 H120      -79.1919   24.7546  -80.0263 H         1 UNK         0.0807 
    121 H121      -79.6339   23.0877  -79.6498 H         1 UNK         0.0807 
    122 H122      -80.7386   24.7179  -78.0946 H         1 UNK         0.2946 
    123 H123      -81.9228   26.2406  -76.6546 H         1 UNK         0.1144 
    124 H124      -82.6170   23.8146  -76.7591 H         1 UNK         0.0793 
    125 H125      -83.6108   24.6849  -75.6076 H         1 UNK         0.0793 
    126 H126      -82.3119   23.6436  -75.0342 H         1 UNK         0.0793 
    127 H127      -80.8691   25.9959  -73.9593 H         1 UNK         0.2896 
@<TRIPOS>BOND
     1    1    2 1    
     2    1   67 1    
     3    1   68 1    
     4    1   69 1    
     5    2    3 2    
     6    2    4 am   BACKBONE|DICT|INTERRES
     7    4    5 1    
     8    4   70 1    
     9    5    6 1    
    10    5   65 1    
    11    5   71 1    
    12    6    7 1    
    13    6   72 1    
    14    6   73 1    
    15    7    8 1    
    16    8    9 1    
    17    8   74 1    
    18    8   75 1    
    19    9   10 ar   
    20    9   14 ar   
    21   10   11 ar   
    22   10   76 1    
    23   11   12 ar   
    24   11   48 1    
    25   12   13 ar   
    26   12   77 1    
    27   13   14 ar   
    28   13   15 1    
    29   14   78 1    
    30   15   16 1    
    31   15   79 1    
    32   15   80 1    
    33   16   17 1    
    34   17   18 1    
    35   17   81 1    
    36   17   82 1    
    37   18   19 1    
    38   18   22 1    
    39   18   83 1    
    40   19   20 am   BACKBONE|DICT|INTERRES
    41   19   21 2    
    42   20   84 1    
    43   20   85 1    
    44   22   23 am   BACKBONE|DICT|INTERRES
    45   22   86 1    
    46   23   24 2    
    47   23   25 1    
    48   25   26 1    
    49   25   27 1    
    50   25   87 1    
    51   26   88 1    
    52   26   89 1    
    53   26   90 1    
    54   27   28 am   BACKBONE|DICT|INTERRES
    55   27   91 1    
    56   28   29 2    
    57   28   30 1    
    58   30   31 1    
    59   30   32 1    
    60   30   92 1    
    61   31   93 1    
    62   31   94 1    
    63   31   95 1    
    64   32   33 am   BACKBONE|DICT|INTERRES
    65   32   96 1    
    66   33   34 2    
    67   33   35 1    
    68   35   36 1    
    69   35   37 1    
    70   35   97 1    
    71   36   98 1    
    72   36   99 1    
    73   36  100 1    
    74   37   38 am   BACKBONE|DICT|INTERRES
    75   37  101 1    
    76   38   39 2    
    77   38   40 1    
    78   40   41 1    
    79   40   42 1    
    80   40  102 1    
    81   41  103 1    
    82   41  104 1    
    83   41  105 1    
    84   42   43 am   BACKBONE|DICT|INTERRES
    85   42  106 1    
    86   43   44 2    
    87   43   45 1    
    88   45   46 1    
    89   45   49 1    
    90   45  107 1    
    91   46   47 1    
    92   46  108 1    
    93   46  109 1    
    94   47   48 1    
    95   48  110 1    
    96   48  111 1    
    97   49   50 am   BACKBONE|DICT|INTERRES
    98   49  112 1    
    99   50   51 2    
   100   50   52 1    
   101   52   53 1    
   102   52   54 1    
   103   52  113 1    
   104   53  114 1    
   105   53  115 1    
   106   53  116 1    
   107   54   55 am   BACKBONE|DICT|INTERRES
   108   54  117 1    
   109   55   56 2    
   110   55   57 1    
   111   57   58 1    
   112   57   59 1    
   113   57  118 1    
   114   58  119 1    
   115   58  120 1    
   116   58  121 1    
   117   59   60 am   BACKBONE|DICT|INTERRES
   118   59  122 1    
   119   60   61 2    
   120   60   62 1    
   121   62   63 1    
   122   62   64 1    
   123   62  123 1    
   124   63  124 1    
   125   63  125 1    
   126   63  126 1    
   127   64   65 am   BACKBONE|DICT|INTERRES
   128   64  127 1    
   129   65   66 2    
@<TRIPOS>SUBSTRUCTURE
     1 UNK         1 GROUP             0       ****    0 ROOT    
