@<TRIPOS>MOLECULE
3R135
127   129    1
SMALL
USER_CHARGES


@<TRIPOS>ATOM
      1 CA        -84.6716   29.1910  -71.5832 C.3       0 UNK        -0.1998 
      2 C         -84.3021   28.9431  -73.0378 C.2       0 UNK         0.4909 
      3 O         -85.1303   28.4519  -73.8053 O.2       0 UNK        -0.5240 
      4 N         -83.0650   29.2825  -73.4226 N.am      1 UNK        -0.4739 
      5 CA        -82.5113   29.0857  -74.7693 C.3       1 UNK         0.0864 
      6 C6        -81.2352   29.9357  -75.0093 C.3       11 UNK        -0.0881 
      7 S7        -80.0161   29.8576  -73.6504 S.3       11 UNK        -0.2682 
      8 C8        -78.7755   28.7391  -74.3580 C.3       11 UNK         0.0289 
      9 C9        -77.7853   28.2952  -73.2963 C.ar      11 UNK        -0.0687 
     10 C10       -78.1127   27.2371  -72.4459 C.ar      11 UNK        -0.0823 
     11 C11       -77.2054   26.7962  -71.4793 C.ar      11 UNK        -0.0830 
     12 C12       -75.9662   27.4304  -71.3599 C.ar      11 UNK        -0.1021 
     13 C13       -75.6237   28.4852  -72.2106 C.ar      11 UNK        -0.0753 
     14 C14       -76.5392   28.9172  -73.1758 C.ar      11 UNK        -0.0933 
     15 C15       -74.2420   29.1110  -72.1244 C.3       11 UNK         0.0166 
     16 S16       -74.2967   30.8779  -71.6897 S.3       11 UNK        -0.2615 
     17 C17       -72.5116   31.2317  -71.5266 C.3       11 UNK        -0.0865 
     18 CA        -71.8621   31.8014  -72.8163 C.3       10 UNK         0.0862 
     19 C         -70.3610   32.1277  -72.5582 C.2       10 UNK         0.5551 
     20 N         -69.4139   31.3557  -73.0812 N.am      10 UNK        -0.7319 
     21 O         -70.0555   33.0975  -71.8689 O.2       10 UNK        -0.5018 
     22 N         -72.0889   30.9222  -73.9722 N.am      10 UNK        -0.4509 
     23 C         -71.8726   31.2431  -75.2521 C.2       10 UNK         0.4899 
     24 O         -71.5852   32.3807  -75.6278 O.2       10 UNK        -0.4839 
     25 CA        -71.9983   30.1062  -76.2902 C.3       9 UNK         0.0222 
     26 CB        -70.9507   30.2399  -77.4148 C.3       9 UNK        -0.1966 
     27 N         -71.9732   28.7394  -75.7415 N.am      9 UNK        -0.4218 
     28 C         -71.0017   28.1614  -75.0113 C.2       9 UNK         0.5020 
     29 O         -70.0087   28.7638  -74.5990 O.2       9 UNK        -0.5274 
     30 CA        -71.1631   26.6686  -74.6555 C.3       8 UNK         0.0270 
     31 CB        -71.6277   26.5010  -73.1996 C.3       8 UNK        -0.1976 
     32 N         -72.0851   25.9498  -75.5387 N.am      8 UNK        -0.4313 
     33 C         -71.8462   25.6884  -76.8334 C.2       8 UNK         0.5041 
     34 O         -70.7671   25.9113  -77.3835 O.2       8 UNK        -0.5577 
     35 CA        -73.0041   25.1148  -77.6736 C.3       7 UNK         0.0284 
     36 CB        -72.7801   23.6187  -77.9432 C.3       7 UNK        -0.1958 
     37 N         -74.3345   25.3172  -77.0857 N.am      7 UNK        -0.4454 
     38 C         -74.8974   26.5149  -76.8563 C.2       7 UNK         0.5089 
     39 O         -74.3477   27.5830  -77.1280 O.2       7 UNK        -0.5125 
     40 CA        -76.2797   26.5495  -76.1776 C.3       6 UNK         0.0408 
     41 CB        -77.3725   26.7615  -77.2378 C.3       6 UNK        -0.1791 
     42 N         -76.6214   25.3751  -75.3674 N.am      6 UNK        -0.4762 
     43 C         -75.8887   24.8389  -74.3763 C.2       6 UNK         0.5007 
     44 O         -74.8024   25.2885  -74.0060 O.2       6 UNK        -0.5032 
     45 CA        -76.4095   23.5053  -73.7912 C.3       5 UNK         0.0783 
     46 C46       -77.4410   23.7085  -72.6537 C.3       11 UNK        -0.0857 
     47 S47       -76.6649   24.1104  -71.0535 S.3       11 UNK        -0.2512 
     48 C48       -77.5528   25.6264  -70.5723 C.3       11 UNK         0.0225 
     49 N         -76.9648   22.6401  -74.8372 N.am      5 UNK        -0.4615 
     50 C         -76.3075   22.1632  -75.9006 C.2       4 UNK         0.5053 
     51 O         -75.1036   22.3302  -76.0842 O.2       4 UNK        -0.5105 
     52 CA        -77.1363   21.4381  -76.9764 C.3       4 UNK         0.0263 
     53 CB        -77.3800   19.9627  -76.6024 C.3       4 UNK        -0.1981 
     54 N         -78.3830   22.1390  -77.3279 N.am      4 UNK        -0.4224 
     55 C         -79.4741   22.3281  -76.5721 C.2       3 UNK         0.4895 
     56 O         -79.6295   21.8427  -75.4483 O.2       3 UNK        -0.5091 
     57 CA        -80.5615   23.2337  -77.1726 C.3       3 UNK         0.0250 
     58 CB        -81.4983   22.4194  -78.0798 C.3       3 UNK        -0.1996 
     59 N         -81.3581   23.9003  -76.1400 N.am      3 UNK        -0.4254 
     60 C         -80.8943   24.7997  -75.2608 C.2       2 UNK         0.5004 
     61 O         -79.7292   25.2050  -75.2294 O.2       2 UNK        -0.5226 
     62 CA        -81.9089   25.3019  -74.2172 C.3       2 UNK         0.0269 
     63 CB        -81.5911   24.7150  -72.8318 C.3       2 UNK        -0.1926 
     64 N         -81.9881   26.7634  -74.1216 N.am      2 UNK        -0.4687 
     65 C         -82.3072   27.5957  -75.1260 C.2       1 UNK         0.5165 
     66 O         -82.4952   27.2294  -76.2872 O.2       1 UNK        -0.5079 
     67 H67       -84.9440   28.2529  -71.1005 H         1 UNK         0.0900 
     68 H68       -83.8482   29.6340  -71.0232 H         1 UNK         0.0900 
     69 H69       -85.5246   29.8662  -71.5227 H         1 UNK         0.0900 
     70 H70       -82.4233   29.6874  -72.7543 H         1 UNK         0.2959 
     71 H71       -83.2653   29.4484  -75.4721 H         1 UNK         0.1079 
     72 H72       -81.5261   30.9824  -75.1108 H         1 UNK         0.0837 
     73 H73       -80.7609   29.6793  -75.9590 H         1 UNK         0.0837 
     74 H74       -79.2702   27.8638  -74.7797 H         1 UNK         0.0685 
     75 H75       -78.2623   29.2359  -75.1827 H         1 UNK         0.0685 
     76 H76       -79.0729   26.7534  -72.5511 H         1 UNK         0.1434 
     77 H77       -75.2584   27.0791  -70.6215 H         1 UNK         0.1329 
     78 H78       -76.2745   29.7286  -73.8400 H         1 UNK         0.1335 
     79 H79       -73.6288   28.5819  -71.3930 H         1 UNK         0.0680 
     80 H80       -73.7543   28.9860  -73.0901 H         1 UNK         0.0680 
     81 H81       -72.3999   31.9470  -70.7092 H         1 UNK         0.1032 
     82 H82       -71.9897   30.3303  -71.1993 H         1 UNK         0.1032 
     83 H83       -72.3506   32.7521  -73.0390 H         1 UNK         0.0461 
     84 H84       -69.6559   30.5429  -73.6380 H         1 UNK         0.3453 
     85 H85       -68.4461   31.5762  -72.9092 H         1 UNK         0.3453 
     86 H86       -72.3028   29.9614  -73.7614 H         1 UNK         0.2984 
     87 H87       -72.9839   30.2244  -76.7424 H         1 UNK         0.0554 
     88 H88       -71.0488   31.1928  -77.9362 H         1 UNK         0.0847 
     89 H89       -71.0672   29.4529  -78.1600 H         1 UNK         0.0847 
     90 H90       -69.9334   30.1848  -77.0257 H         1 UNK         0.0847 
     91 H91       -72.7541   28.1601  -76.0367 H         1 UNK         0.3141 
     92 H92       -70.1765   26.2104  -74.7509 H         1 UNK         0.0743 
     93 H93       -70.9936   27.0643  -72.5134 H         1 UNK         0.0784 
     94 H94       -72.6527   26.8432  -73.0600 H         1 UNK         0.0784 
     95 H95       -71.5865   25.4558  -72.8925 H         1 UNK         0.0784 
     96 H96       -72.9936   25.7108  -75.1540 H         1 UNK         0.3213 
     97 H97       -72.9921   25.6377  -78.6323 H         1 UNK         0.0855 
     98 H98       -72.7252   23.0470  -77.0162 H         1 UNK         0.0814 
     99 H99       -71.8436   23.4561  -78.4785 H         1 UNK         0.0814 
    100 H100      -73.5789   23.1967  -78.5533 H         1 UNK         0.0814 
    101 H101      -74.8262   24.4849  -76.7848 H         1 UNK         0.3105 
    102 H102      -76.2770   27.4103  -75.5104 H         1 UNK         0.0547 
    103 H103      -78.3520   26.9048  -76.7837 H         1 UNK         0.0837 
    104 H104      -77.1671   27.6474  -77.8404 H         1 UNK         0.0837 
    105 H105      -77.4423   25.9125  -77.9187 H         1 UNK         0.0837 
    106 H106      -77.5321   24.9677  -75.5455 H         1 UNK         0.3020 
    107 H107      -75.5432   22.9778  -73.3852 H         1 UNK         0.1245 
    108 H108      -78.0016   22.7862  -72.4917 H         1 UNK         0.0781 
    109 H109      -78.1883   24.4535  -72.9294 H         1 UNK         0.0781 
    110 H110      -77.2902   25.8778  -69.5437 H         1 UNK         0.0836 
    111 H111      -78.6272   25.4351  -70.5734 H         1 UNK         0.0836 
    112 H112      -77.9611   22.4428  -74.7888 H         1 UNK         0.3022 
    113 H113      -76.5336   21.4434  -77.8863 H         1 UNK         0.0747 
    114 H114      -77.9338   19.4423  -77.3837 H         1 UNK         0.0793 
    115 H115      -76.4334   19.4369  -76.4707 H         1 UNK         0.0793 
    116 H116      -77.9364   19.8584  -75.6707 H         1 UNK         0.0793 
    117 H117      -78.3667   22.5869  -78.2343 H         1 UNK         0.3047 
    118 H118      -80.0774   24.0107  -77.7685 H         1 UNK         0.0822 
    119 H119      -80.9441   21.9350  -78.8850 H         1 UNK         0.0807 
    120 H120      -82.2516   23.0548  -78.5461 H         1 UNK         0.0807 
    121 H121      -82.0161   21.6357  -77.5248 H         1 UNK         0.0807 
    122 H122      -82.3203   23.6049  -76.0661 H         1 UNK         0.2946 
    123 H123      -82.9028   24.9545  -74.5078 H         1 UNK         0.1144 
    124 H124      -82.3483   24.9916  -72.0980 H         1 UNK         0.0793 
    125 H125      -80.6236   25.0505  -72.4604 H         1 UNK         0.0793 
    126 H126      -81.5608   23.6250  -72.8691 H         1 UNK         0.0793 
    127 H127      -81.8478   27.1673  -73.2076 H         1 UNK         0.2896 
@<TRIPOS>BOND
     1    1    2 1    
     2    1   67 1    
     3    1   68 1    
     4    1   69 1    
     5    2    3 2    
     6    2    4 am   BACKBONE|DICT|INTERRES
     7    4    5 1    
     8    4   70 1    
     9    5    6 1    
    10    5   65 1    
    11    5   71 1    
    12    6    7 1    
    13    6   72 1    
    14    6   73 1    
    15    7    8 1    
    16    8    9 1    
    17    8   74 1    
    18    8   75 1    
    19    9   10 ar   
    20    9   14 ar   
    21   10   11 ar   
    22   10   76 1    
    23   11   12 ar   
    24   11   48 1    
    25   12   13 ar   
    26   12   77 1    
    27   13   14 ar   
    28   13   15 1    
    29   14   78 1    
    30   15   16 1    
    31   15   79 1    
    32   15   80 1    
    33   16   17 1    
    34   17   18 1    
    35   17   81 1    
    36   17   82 1    
    37   18   19 1    
    38   18   22 1    
    39   18   83 1    
    40   19   20 am   BACKBONE|DICT|INTERRES
    41   19   21 2    
    42   20   84 1    
    43   20   85 1    
    44   22   23 am   BACKBONE|DICT|INTERRES
    45   22   86 1    
    46   23   24 2    
    47   23   25 1    
    48   25   26 1    
    49   25   27 1    
    50   25   87 1    
    51   26   88 1    
    52   26   89 1    
    53   26   90 1    
    54   27   28 am   BACKBONE|DICT|INTERRES
    55   27   91 1    
    56   28   29 2    
    57   28   30 1    
    58   30   31 1    
    59   30   32 1    
    60   30   92 1    
    61   31   93 1    
    62   31   94 1    
    63   31   95 1    
    64   32   33 am   BACKBONE|DICT|INTERRES
    65   32   96 1    
    66   33   34 2    
    67   33   35 1    
    68   35   36 1    
    69   35   37 1    
    70   35   97 1    
    71   36   98 1    
    72   36   99 1    
    73   36  100 1    
    74   37   38 am   BACKBONE|DICT|INTERRES
    75   37  101 1    
    76   38   39 2    
    77   38   40 1    
    78   40   41 1    
    79   40   42 1    
    80   40  102 1    
    81   41  103 1    
    82   41  104 1    
    83   41  105 1    
    84   42   43 am   BACKBONE|DICT|INTERRES
    85   42  106 1    
    86   43   44 2    
    87   43   45 1    
    88   45   46 1    
    89   45   49 1    
    90   45  107 1    
    91   46   47 1    
    92   46  108 1    
    93   46  109 1    
    94   47   48 1    
    95   48  110 1    
    96   48  111 1    
    97   49   50 am   BACKBONE|DICT|INTERRES
    98   49  112 1    
    99   50   51 2    
   100   50   52 1    
   101   52   53 1    
   102   52   54 1    
   103   52  113 1    
   104   53  114 1    
   105   53  115 1    
   106   53  116 1    
   107   54   55 am   BACKBONE|DICT|INTERRES
   108   54  117 1    
   109   55   56 2    
   110   55   57 1    
   111   57   58 1    
   112   57   59 1    
   113   57  118 1    
   114   58  119 1    
   115   58  120 1    
   116   58  121 1    
   117   59   60 am   BACKBONE|DICT|INTERRES
   118   59  122 1    
   119   60   61 2    
   120   60   62 1    
   121   62   63 1    
   122   62   64 1    
   123   62  123 1    
   124   63  124 1    
   125   63  125 1    
   126   63  126 1    
   127   64   65 am   BACKBONE|DICT|INTERRES
   128   64  127 1    
   129   65   66 2    
@<TRIPOS>SUBSTRUCTURE
     1 UNK         1 GROUP             0       ****    0 ROOT    
