@<TRIPOS>MOLECULE
3R135
127   129    1
SMALL
USER_CHARGES


@<TRIPOS>ATOM
      1 CA        -81.7142   28.1668  -76.3297 C.3       0 UNK        -0.1998 
      2 C         -80.9995   27.3598  -75.2576 C.2       0 UNK         0.4909 
      3 O         -79.9468   26.7804  -75.5275 O.2       0 UNK        -0.5240 
      4 N         -81.5557   27.3210  -74.0378 N.am      1 UNK        -0.4739 
      5 CA        -81.0322   26.5413  -72.9067 C.3       1 UNK         0.0864 
      6 C6        -81.7868   26.8657  -71.5951 C.3       11 UNK        -0.0881 
      7 S7        -80.7795   26.5295  -70.1127 S.3       11 UNK        -0.2682 
      8 C8        -80.3687   28.2115  -69.5499 C.3       11 UNK         0.0289 
      9 C9        -79.2419   28.8343  -70.3630 C.ar      11 UNK        -0.0687 
     10 C10       -79.5203   29.6898  -71.4351 C.ar      11 UNK        -0.0823 
     11 C11       -78.4826   30.3070  -72.1441 C.ar      11 UNK        -0.0830 
     12 C12       -77.1587   30.0649  -71.7625 C.ar      11 UNK        -0.1021 
     13 C13       -76.8686   29.2004  -70.7042 C.ar      11 UNK        -0.0753 
     14 C14       -77.9127   28.5847  -70.0102 C.ar      11 UNK        -0.0933 
     15 C15       -75.4249   28.9494  -70.3071 C.3       11 UNK         0.0166 
     16 S16       -74.6693   27.6993  -71.3847 S.3       11 UNK        -0.2615 
     17 C17       -72.9109   27.8971  -70.9390 C.3       11 UNK        -0.0865 
     18 CA        -72.1988   28.9990  -71.7680 C.3       10 UNK         0.0862 
     19 C         -70.7037   29.0979  -71.3597 C.2       10 UNK         0.5551 
     20 N         -70.3524   30.0547  -70.5116 N.am      10 UNK        -0.7319 
     21 O         -69.8760   28.2839  -71.7636 O.2       10 UNK        -0.5018 
     22 N         -72.3936   28.7822  -73.2066 N.am      10 UNK        -0.4509 
     23 C         -71.9756   29.5733  -74.2026 C.2       10 UNK         0.4899 
     24 O         -71.3806   30.6391  -74.0362 O.2       10 UNK        -0.4839 
     25 CA        -72.3204   29.0927  -75.6262 C.3       9 UNK         0.0222 
     26 CB        -71.4324   29.7217  -76.7205 C.3       9 UNK        -0.1966 
     27 N         -72.3566   27.6282  -75.7294 N.am      9 UNK        -0.4218 
     28 C         -71.3288   26.7774  -75.5784 C.2       9 UNK         0.5020 
     29 O         -70.1553   27.1208  -75.4349 O.2       9 UNK        -0.5274 
     30 CA        -71.6723   25.2819  -75.5664 C.3       8 UNK         0.0270 
     31 CB        -72.0159   24.8208  -74.1383 C.3       8 UNK        -0.1976 
     32 N         -72.7903   24.9795  -76.4637 N.am      8 UNK        -0.4313 
     33 C         -72.6453   24.5027  -77.7064 C.2       8 UNK         0.5041 
     34 O         -71.5565   24.2503  -78.2249 O.2       8 UNK        -0.5577 
     35 CA        -73.9300   24.2432  -78.5058 C.3       7 UNK         0.0284 
     36 CB        -74.6140   22.9504  -78.0296 C.3       7 UNK        -0.1958 
     37 N         -74.8865   25.3502  -78.4564 N.am      7 UNK        -0.4454 
     38 C         -74.7343   26.5206  -79.0925 C.2       7 UNK         0.5089 
     39 O         -73.7175   26.8407  -79.7081 O.2       7 UNK        -0.5125 
     40 CA        -75.9298   27.4859  -79.0648 C.3       6 UNK         0.0408 
     41 CB        -77.0301   27.0079  -80.0267 C.3       6 UNK        -0.1791 
     42 N         -76.4856   27.6037  -77.7181 N.am      6 UNK        -0.4762 
     43 C         -76.2401   28.6174  -76.8749 C.2       6 UNK         0.5007 
     44 O         -75.5759   29.6085  -77.1779 O.2       6 UNK        -0.5032 
     45 CA        -76.8114   28.4981  -75.4430 C.3       5 UNK         0.0783 
     46 C46       -78.0894   29.3564  -75.2625 C.3       11 UNK        -0.0857 
     47 S47       -77.7293   31.0694  -74.7562 S.3       11 UNK        -0.2512 
     48 C48       -78.8072   31.2623  -73.2917 C.3       11 UNK         0.0225 
     49 N         -77.0389   27.1042  -75.0443 N.am      5 UNK        -0.4615 
     50 C         -76.0567   26.2158  -74.8455 C.2       4 UNK         0.5053 
     51 O         -74.8638   26.4716  -75.0160 O.2       4 UNK        -0.5105 
     52 CA        -76.4539   24.7881  -74.4412 C.3       4 UNK         0.0263 
     53 CB        -76.5307   24.6777  -72.9111 C.3       4 UNK        -0.1981 
     54 N         -77.7029   24.2881  -75.0250 N.am      4 UNK        -0.4224 
     55 C         -77.9920   24.2266  -76.3368 C.2       3 UNK         0.4895 
     56 O         -77.2821   24.7227  -77.2116 O.2       3 UNK        -0.5091 
     57 CA        -79.2621   23.4744  -76.7639 C.3       3 UNK         0.0250 
     58 CB        -78.8952   22.0617  -77.2588 C.3       3 UNK        -0.1996 
     59 N         -80.2403   23.4141  -75.6800 N.am      3 UNK        -0.4254 
     60 C         -81.5246   23.0585  -75.7569 C.2       2 UNK         0.5004 
     61 O         -82.0660   22.6316  -76.7770 O.2       2 UNK        -0.5226 
     62 CA        -82.3624   23.2561  -74.4780 C.3       2 UNK         0.0269 
     63 CB        -82.1752   22.0841  -73.4941 C.3       2 UNK        -0.1926 
     64 N         -82.1403   24.5614  -73.8308 N.am      2 UNK        -0.4687 
     65 C         -81.0377   25.0299  -73.2206 C.2       1 UNK         0.5165 
     66 O         -80.0242   24.3570  -73.0220 O.2       1 UNK        -0.5079 
     67 H67       -81.9310   27.5337  -77.1895 H         1 UNK         0.0900 
     68 H68       -81.0849   28.9907  -76.6639 H         1 UNK         0.0900 
     69 H69       -82.6545   28.5824  -75.9685 H         1 UNK         0.0900 
     70 H70       -82.4151   27.8251  -73.8710 H         1 UNK         0.2959 
     71 H71       -79.9876   26.8400  -72.7857 H         1 UNK         0.1079 
     72 H72       -82.0798   27.9161  -71.5804 H         1 UNK         0.0837 
     73 H73       -82.7219   26.3068  -71.5218 H         1 UNK         0.0837 
     74 H74       -81.2582   28.8430  -69.5735 H         1 UNK         0.0685 
     75 H75       -80.0706   28.1600  -68.5016 H         1 UNK         0.0685 
     76 H76       -80.5481   29.8880  -71.7064 H         1 UNK         0.1434 
     77 H77       -76.3477   30.5453  -72.2925 H         1 UNK         0.1329 
     78 H78       -77.6921   27.9208  -69.1854 H         1 UNK         0.1335 
     79 H79       -74.8629   29.8821  -70.3735 H         1 UNK         0.0680 
     80 H80       -75.3605   28.6205  -69.2687 H         1 UNK         0.0680 
     81 H81       -72.4203   26.9331  -71.0895 H         1 UNK         0.1032 
     82 H82       -72.8346   28.1080  -69.8704 H         1 UNK         0.1032 
     83 H83       -72.6745   29.9541  -71.5374 H         1 UNK         0.0461 
     84 H84       -69.3893   30.1223  -70.2212 H         1 UNK         0.3453 
     85 H85       -71.0262   30.7210  -70.1674 H         1 UNK         0.3453 
     86 H86       -72.8921   27.9390  -73.4491 H         1 UNK         0.2984 
     87 H87       -73.3412   29.4276  -75.8064 H         1 UNK         0.0554 
     88 H88       -71.7072   29.3572  -77.7104 H         1 UNK         0.0847 
     89 H89       -70.3755   29.5061  -76.5625 H         1 UNK         0.0847 
     90 H90       -71.5419   30.8067  -76.7341 H         1 UNK         0.0847 
     91 H91       -73.2889   27.2235  -75.7541 H         1 UNK         0.3141 
     92 H92       -70.7805   24.7361  -75.8823 H         1 UNK         0.0743 
     93 H93       -72.8840   25.3402  -73.7322 H         1 UNK         0.0784 
     94 H94       -72.2229   23.7510  -74.1080 H         1 UNK         0.0784 
     95 H95       -71.1822   25.0082  -73.4601 H         1 UNK         0.0784 
     96 H96       -73.7181   25.2092  -76.1263 H         1 UNK         0.3213 
     97 H97       -73.6421   24.1011  -79.5500 H         1 UNK         0.0855 
     98 H98       -74.9535   23.0258  -76.9962 H         1 UNK         0.0814 
     99 H99       -73.9300   22.1026  -78.0874 H         1 UNK         0.0814 
    100 H100      -75.4797   22.7102  -78.6472 H         1 UNK         0.0814 
    101 H101      -75.7749   25.1583  -77.9938 H         1 UNK         0.3105 
    102 H102      -75.5819   28.4591  -79.4175 H         1 UNK         0.0547 
    103 H103      -76.6433   26.9046  -81.0414 H         1 UNK         0.0837 
    104 H104      -77.4381   26.0400  -79.7326 H         1 UNK         0.0837 
    105 H105      -77.8553   27.7190  -80.0661 H         1 UNK         0.0837 
    106 H106      -77.0111   26.8074  -77.3740 H         1 UNK         0.3020 
    107 H107      -76.0416   28.8814  -74.7682 H         1 UNK         0.1245 
    108 H108      -78.7165   28.9172  -74.4872 H         1 UNK         0.0781 
    109 H109      -78.7022   29.3677  -76.1655 H         1 UNK         0.0781 
    110 H110      -79.8437   31.1406  -73.6106 H         1 UNK         0.0836 
    111 H111      -78.7170   32.2857  -72.9256 H         1 UNK         0.0836 
    112 H112      -78.0074   26.8044  -74.9814 H         1 UNK         0.3022 
    113 H113      -75.6580   24.1254  -74.7857 H         1 UNK         0.0747 
    114 H114      -76.7310   23.6545  -72.5932 H         1 UNK         0.0793 
    115 H115      -75.5887   24.9787  -72.4508 H         1 UNK         0.0793 
    116 H116      -77.3138   25.3167  -72.4995 H         1 UNK         0.0793 
    117 H117      -78.3476   23.8861  -74.3589 H         1 UNK         0.3047 
    118 H118      -79.7061   24.0370  -77.5876 H         1 UNK         0.0822 
    119 H119      -79.7558   21.5479  -77.6867 H         1 UNK         0.0807 
    120 H120      -78.5030   21.4431  -76.4509 H         1 UNK         0.0807 
    121 H121      -78.1318   22.1060  -78.0370 H         1 UNK         0.0807 
    122 H122      -79.9562   23.8062  -74.7881 H         1 UNK         0.2946 
    123 H123      -83.4081   23.2533  -74.7911 H         1 UNK         0.1144 
    124 H124      -82.4551   21.1393  -73.9618 H         1 UNK         0.0793 
    125 H125      -82.8011   22.2058  -72.6101 H         1 UNK         0.0793 
    126 H126      -81.1418   21.9835  -73.1619 H         1 UNK         0.0793 
    127 H127      -82.8828   25.2307  -73.9811 H         1 UNK         0.2896 
@<TRIPOS>BOND
     1    1    2 1    
     2    1   67 1    
     3    1   68 1    
     4    1   69 1    
     5    2    3 2    
     6    2    4 am   BACKBONE|DICT|INTERRES
     7    4    5 1    
     8    4   70 1    
     9    5    6 1    
    10    5   65 1    
    11    5   71 1    
    12    6    7 1    
    13    6   72 1    
    14    6   73 1    
    15    7    8 1    
    16    8    9 1    
    17    8   74 1    
    18    8   75 1    
    19    9   10 ar   
    20    9   14 ar   
    21   10   11 ar   
    22   10   76 1    
    23   11   12 ar   
    24   11   48 1    
    25   12   13 ar   
    26   12   77 1    
    27   13   14 ar   
    28   13   15 1    
    29   14   78 1    
    30   15   16 1    
    31   15   79 1    
    32   15   80 1    
    33   16   17 1    
    34   17   18 1    
    35   17   81 1    
    36   17   82 1    
    37   18   19 1    
    38   18   22 1    
    39   18   83 1    
    40   19   20 am   BACKBONE|DICT|INTERRES
    41   19   21 2    
    42   20   84 1    
    43   20   85 1    
    44   22   23 am   BACKBONE|DICT|INTERRES
    45   22   86 1    
    46   23   24 2    
    47   23   25 1    
    48   25   26 1    
    49   25   27 1    
    50   25   87 1    
    51   26   88 1    
    52   26   89 1    
    53   26   90 1    
    54   27   28 am   BACKBONE|DICT|INTERRES
    55   27   91 1    
    56   28   29 2    
    57   28   30 1    
    58   30   31 1    
    59   30   32 1    
    60   30   92 1    
    61   31   93 1    
    62   31   94 1    
    63   31   95 1    
    64   32   33 am   BACKBONE|DICT|INTERRES
    65   32   96 1    
    66   33   34 2    
    67   33   35 1    
    68   35   36 1    
    69   35   37 1    
    70   35   97 1    
    71   36   98 1    
    72   36   99 1    
    73   36  100 1    
    74   37   38 am   BACKBONE|DICT|INTERRES
    75   37  101 1    
    76   38   39 2    
    77   38   40 1    
    78   40   41 1    
    79   40   42 1    
    80   40  102 1    
    81   41  103 1    
    82   41  104 1    
    83   41  105 1    
    84   42   43 am   BACKBONE|DICT|INTERRES
    85   42  106 1    
    86   43   44 2    
    87   43   45 1    
    88   45   46 1    
    89   45   49 1    
    90   45  107 1    
    91   46   47 1    
    92   46  108 1    
    93   46  109 1    
    94   47   48 1    
    95   48  110 1    
    96   48  111 1    
    97   49   50 am   BACKBONE|DICT|INTERRES
    98   49  112 1    
    99   50   51 2    
   100   50   52 1    
   101   52   53 1    
   102   52   54 1    
   103   52  113 1    
   104   53  114 1    
   105   53  115 1    
   106   53  116 1    
   107   54   55 am   BACKBONE|DICT|INTERRES
   108   54  117 1    
   109   55   56 2    
   110   55   57 1    
   111   57   58 1    
   112   57   59 1    
   113   57  118 1    
   114   58  119 1    
   115   58  120 1    
   116   58  121 1    
   117   59   60 am   BACKBONE|DICT|INTERRES
   118   59  122 1    
   119   60   61 2    
   120   60   62 1    
   121   62   63 1    
   122   62   64 1    
   123   62  123 1    
   124   63  124 1    
   125   63  125 1    
   126   63  126 1    
   127   64   65 am   BACKBONE|DICT|INTERRES
   128   64  127 1    
   129   65   66 2    
@<TRIPOS>SUBSTRUCTURE
     1 UNK         1 GROUP             0       ****    0 ROOT    
