@<TRIPOS>MOLECULE
3R135
127   129    1
SMALL
USER_CHARGES


@<TRIPOS>ATOM
      1 CA        -81.2025   24.0439  -70.8744 C.3       0 UNK        -0.1998 
      2 C         -82.0030   25.1023  -71.6171 C.2       0 UNK         0.4909 
      3 O         -83.1592   24.8612  -71.9651 O.2       0 UNK        -0.5240 
      4 N         -81.3996   26.2755  -71.8533 N.am      1 UNK        -0.4739 
      5 CA        -82.0275   27.4212  -72.5308 C.3       1 UNK         0.0864 
      6 C6        -81.2112   28.7239  -72.3483 C.3       11 UNK        -0.0881 
      7 S7        -81.0085   29.1518  -70.5855 S.3       11 UNK        -0.2682 
      8 C8        -79.6091   30.3221  -70.6398 C.3       11 UNK         0.0289 
      9 C9        -78.3037   29.7203  -71.1559 C.ar      11 UNK        -0.0687 
     10 C10       -77.8999   28.4293  -70.7937 C.ar      11 UNK        -0.0823 
     11 C11       -76.7050   27.8895  -71.2822 C.ar      11 UNK        -0.0830 
     12 C12       -75.8915   28.6685  -72.1112 C.ar      11 UNK        -0.1021 
     13 C13       -76.2600   29.9750  -72.4447 C.ar      11 UNK        -0.0753 
     14 C14       -77.4725   30.4885  -71.9771 C.ar      11 UNK        -0.0933 
     15 C15       -75.3296   30.8464  -73.2737 C.3       11 UNK         0.0166 
     16 S16       -75.7094   30.7331  -75.0439 S.3       11 UNK        -0.2615 
     17 C17       -74.3690   31.7389  -75.7676 C.3       11 UNK        -0.0865 
     18 CA        -73.2067   30.8616  -76.3277 C.3       10 UNK         0.0862 
     19 C         -72.2864   31.6004  -77.3512 C.2       10 UNK         0.5551 
     20 N         -72.8451   32.4101  -78.2420 N.am      10 UNK        -0.7319 
     21 O         -71.0715   31.4104  -77.3925 O.2       10 UNK        -0.5018 
     22 N         -72.4635   30.1673  -75.2597 N.am      10 UNK        -0.4509 
     23 C         -71.6638   30.7276  -74.3419 C.2       10 UNK         0.4899 
     24 O         -71.4909   31.9435  -74.2452 O.2       10 UNK        -0.4839 
     25 CA        -70.9112   29.8090  -73.3520 C.3       9 UNK         0.0222 
     26 CB        -71.5475   29.8749  -71.9478 C.3       9 UNK        -0.1966 
     27 N         -70.7001   28.4099  -73.7657 N.am      9 UNK        -0.4218 
     28 C         -71.6218   27.4606  -73.9725 C.2       9 UNK         0.5020 
     29 O         -72.8343   27.6643  -73.9113 O.2       9 UNK        -0.5274 
     30 CA        -71.1049   26.0507  -74.2902 C.3       8 UNK         0.0270 
     31 CB        -71.0036   25.2161  -73.0034 C.3       8 UNK        -0.1976 
     32 N         -72.0569   25.4141  -75.1943 N.am      8 UNK        -0.4313 
     33 C         -71.7968   25.0246  -76.4498 C.2       8 UNK         0.5041 
     34 O         -70.6629   24.9711  -76.9288 O.2       8 UNK        -0.5577 
     35 CA        -73.0021   24.6605  -77.3439 C.3       7 UNK         0.0284 
     36 CB        -73.2185   23.1388  -77.3653 C.3       7 UNK        -0.1958 
     37 N         -74.2487   25.3103  -76.9333 N.am      7 UNK        -0.4454 
     38 C         -74.4433   26.6324  -76.8394 C.2       7 UNK         0.5089 
     39 O         -73.6614   27.4656  -77.2977 O.2       7 UNK        -0.5125 
     40 CA        -75.6857   27.1135  -76.0666 C.3       6 UNK         0.0408 
     41 CB        -76.6583   27.8478  -77.0011 C.3       6 UNK        -0.1791 
     42 N         -76.4170   26.0761  -75.3283 N.am      6 UNK        -0.4762 
     43 C         -75.9452   25.3382  -74.3094 C.2       6 UNK         0.5007 
     44 O         -74.7723   25.3349  -73.9391 O.2       6 UNK        -0.5032 
     45 CA        -76.9598   24.4085  -73.6260 C.3       5 UNK         0.0783 
     46 C46       -77.9730   25.2136  -72.7663 C.3       11 UNK        -0.0857 
     47 S47       -77.5537   25.2159  -70.9933 S.3       11 UNK        -0.2512 
     48 C48       -76.2513   26.4910  -70.8761 C.3       11 UNK         0.0225 
     49 N         -77.6234   23.5947  -74.6446 N.am      5 UNK        -0.4615 
     50 C         -77.1346   22.4520  -75.1445 C.2       4 UNK         0.5053 
     51 O         -76.1168   21.9016  -74.7252 O.2       4 UNK        -0.5105 
     52 CA        -77.9020   21.8147  -76.3183 C.3       4 UNK         0.0263 
     53 CB        -78.9035   20.7709  -75.7985 C.3       4 UNK        -0.1981 
     54 N         -78.6116   22.7915  -77.1493 N.am      4 UNK        -0.4224 
     55 C         -78.0176   23.7253  -77.9065 C.2       3 UNK         0.4895 
     56 O         -76.7984   23.8247  -78.0406 O.2       3 UNK        -0.5091 
     57 CA        -78.9374   24.7468  -78.6016 C.3       3 UNK         0.0250 
     58 CB        -79.3260   24.2448  -80.0015 C.3       3 UNK        -0.1996 
     59 N         -80.1553   25.0968  -77.8557 N.am      3 UNK        -0.4254 
     60 C         -80.2099   25.5387  -76.5903 C.2       2 UNK         0.5004 
     61 O         -79.2201   25.6654  -75.8627 O.2       2 UNK        -0.5226 
     62 CA        -81.6057   25.8511  -76.0350 C.3       2 UNK         0.0269 
     63 CB        -82.5249   24.6139  -76.0750 C.3       2 UNK        -0.1926 
     64 N         -81.4812   26.3062  -74.6528 N.am      2 UNK        -0.4687 
     65 C         -82.3053   27.1533  -74.0261 C.2       1 UNK         0.5165 
     66 O         -83.2650   27.6997  -74.5724 O.2       1 UNK        -0.5079 
     67 H67       -80.3780   24.4829  -70.3139 H         1 UNK         0.0900 
     68 H68       -80.7954   23.3166  -71.5762 H         1 UNK         0.0900 
     69 H69       -81.8404   23.5151  -70.1667 H         1 UNK         0.0900 
     70 H70       -80.4618   26.4316  -71.5127 H         1 UNK         0.2959 
     71 H71       -83.0035   27.5743  -72.0643 H         1 UNK         0.1079 
     72 H72       -80.2302   28.6249  -72.8169 H         1 UNK         0.0837 
     73 H73       -81.7058   29.5628  -72.8424 H         1 UNK         0.0837 
     74 H74       -79.9036   31.1770  -71.2508 H         1 UNK         0.0685 
     75 H75       -79.4379   30.7059  -69.6335 H         1 UNK         0.0685 
     76 H76       -78.5182   27.8399  -70.1312 H         1 UNK         0.1434 
     77 H77       -74.9568   28.2678  -72.4812 H         1 UNK         0.1329 
     78 H78       -77.7595   31.4970  -72.2422 H         1 UNK         0.1335 
     79 H79       -74.2974   30.5434  -73.1050 H         1 UNK         0.0680 
     80 H80       -75.4026   31.8866  -72.9526 H         1 UNK         0.0680 
     81 H81       -74.0012   32.4643  -75.0406 H         1 UNK         0.1032 
     82 H82       -74.8371   32.3285  -76.5559 H         1 UNK         0.1032 
     83 H83       -73.6586   30.0641  -76.9164 H         1 UNK         0.0461 
     84 H84       -73.8414   32.5564  -78.2702 H         1 UNK         0.3453 
     85 H85       -72.2545   32.8712  -78.9166 H         1 UNK         0.3453 
     86 H86       -72.6021   29.1644  -75.2071 H         1 UNK         0.2984 
     87 H87       -69.9091   30.2326  -73.2681 H         1 UNK         0.0554 
     88 H88       -70.9328   29.3580  -71.2110 H         1 UNK         0.0847 
     89 H89       -72.5404   29.4258  -71.9254 H         1 UNK         0.0847 
     90 H90       -71.6523   30.9076  -71.6122 H         1 UNK         0.0847 
     91 H91       -69.7302   28.1468  -73.8777 H         1 UNK         0.3141 
     92 H92       -70.1177   26.1259  -74.7508 H         1 UNK         0.0743 
     93 H93       -71.9691   25.1340  -72.5013 H         1 UNK         0.0784 
     94 H94       -70.6498   24.2068  -73.2142 H         1 UNK         0.0784 
     95 H95       -70.3041   25.6660  -72.2977 H         1 UNK         0.0784 
     96 H96       -73.0271   25.4769  -74.8894 H         1 UNK         0.3213 
     97 H97       -72.7731   24.9952  -78.3576 H         1 UNK         0.0855 
     98 H98       -73.4795   22.7552  -76.3777 H         1 UNK         0.0814 
     99 H99       -72.3155   22.6201  -77.6903 H         1 UNK         0.0814 
    100 H100      -74.0173   22.8615  -78.0537 H         1 UNK         0.0814 
    101 H101      -74.9852   24.7084  -76.5916 H         1 UNK         0.3105 
    102 H102      -75.3264   27.8260  -75.3223 H         1 UNK         0.0547 
    103 H103      -76.1706   28.6996  -77.4771 H         1 UNK         0.0837 
    104 H104      -77.0191   27.1966  -77.7946 H         1 UNK         0.0837 
    105 H105      -77.5207   28.2333  -76.4569 H         1 UNK         0.0837 
    106 H106      -77.4014   25.9746  -75.5664 H         1 UNK         0.3020 
    107 H107      -76.3975   23.7368  -72.9724 H         1 UNK         0.1245 
    108 H108      -78.9593   24.7538  -72.8359 H         1 UNK         0.0781 
    109 H109      -78.1152   26.2384  -73.1171 H         1 UNK         0.0781 
    110 H110      -75.3913   26.1746  -71.4673 H         1 UNK         0.0836 
    111 H111      -75.9044   26.5323  -69.8429 H         1 UNK         0.0836 
    112 H112      -78.4199   24.0252  -75.1003 H         1 UNK         0.3022 
    113 H113      -77.1707   21.3055  -76.9498 H         1 UNK         0.0747 
    114 H114      -79.3984   20.2517  -76.6195 H         1 UNK         0.0793 
    115 H115      -78.3996   20.0135  -75.1961 H         1 UNK         0.0793 
    116 H116      -79.6736   21.2248  -75.1733 H         1 UNK         0.0793 
    117 H117      -79.6201   22.7801  -77.1090 H         1 UNK         0.3047 
    118 H118      -78.3632   25.6644  -78.7262 H         1 UNK         0.0822 
    119 H119      -79.8763   25.0038  -80.5580 H         1 UNK         0.0807 
    120 H120      -79.9448   23.3479  -79.9527 H         1 UNK         0.0807 
    121 H121      -78.4396   23.9975  -80.5878 H         1 UNK         0.0807 
    122 H122      -81.0214   25.0194  -78.3696 H         1 UNK         0.2946 
    123 H123      -82.0330   26.6498  -76.6458 H         1 UNK         0.1144 
    124 H124      -83.5042   24.8362  -75.6506 H         1 UNK         0.0793 
    125 H125      -82.1028   23.7813  -75.5106 H         1 UNK         0.0793 
    126 H126      -82.6942   24.2688  -77.0954 H         1 UNK         0.0793 
    127 H127      -80.6671   25.9602  -74.1642 H         1 UNK         0.2896 
@<TRIPOS>BOND
     1    1    2 1    
     2    1   67 1    
     3    1   68 1    
     4    1   69 1    
     5    2    3 2    
     6    2    4 am   BACKBONE|DICT|INTERRES
     7    4    5 1    
     8    4   70 1    
     9    5    6 1    
    10    5   65 1    
    11    5   71 1    
    12    6    7 1    
    13    6   72 1    
    14    6   73 1    
    15    7    8 1    
    16    8    9 1    
    17    8   74 1    
    18    8   75 1    
    19    9   10 ar   
    20    9   14 ar   
    21   10   11 ar   
    22   10   76 1    
    23   11   12 ar   
    24   11   48 1    
    25   12   13 ar   
    26   12   77 1    
    27   13   14 ar   
    28   13   15 1    
    29   14   78 1    
    30   15   16 1    
    31   15   79 1    
    32   15   80 1    
    33   16   17 1    
    34   17   18 1    
    35   17   81 1    
    36   17   82 1    
    37   18   19 1    
    38   18   22 1    
    39   18   83 1    
    40   19   20 am   BACKBONE|DICT|INTERRES
    41   19   21 2    
    42   20   84 1    
    43   20   85 1    
    44   22   23 am   BACKBONE|DICT|INTERRES
    45   22   86 1    
    46   23   24 2    
    47   23   25 1    
    48   25   26 1    
    49   25   27 1    
    50   25   87 1    
    51   26   88 1    
    52   26   89 1    
    53   26   90 1    
    54   27   28 am   BACKBONE|DICT|INTERRES
    55   27   91 1    
    56   28   29 2    
    57   28   30 1    
    58   30   31 1    
    59   30   32 1    
    60   30   92 1    
    61   31   93 1    
    62   31   94 1    
    63   31   95 1    
    64   32   33 am   BACKBONE|DICT|INTERRES
    65   32   96 1    
    66   33   34 2    
    67   33   35 1    
    68   35   36 1    
    69   35   37 1    
    70   35   97 1    
    71   36   98 1    
    72   36   99 1    
    73   36  100 1    
    74   37   38 am   BACKBONE|DICT|INTERRES
    75   37  101 1    
    76   38   39 2    
    77   38   40 1    
    78   40   41 1    
    79   40   42 1    
    80   40  102 1    
    81   41  103 1    
    82   41  104 1    
    83   41  105 1    
    84   42   43 am   BACKBONE|DICT|INTERRES
    85   42  106 1    
    86   43   44 2    
    87   43   45 1    
    88   45   46 1    
    89   45   49 1    
    90   45  107 1    
    91   46   47 1    
    92   46  108 1    
    93   46  109 1    
    94   47   48 1    
    95   48  110 1    
    96   48  111 1    
    97   49   50 am   BACKBONE|DICT|INTERRES
    98   49  112 1    
    99   50   51 2    
   100   50   52 1    
   101   52   53 1    
   102   52   54 1    
   103   52  113 1    
   104   53  114 1    
   105   53  115 1    
   106   53  116 1    
   107   54   55 am   BACKBONE|DICT|INTERRES
   108   54  117 1    
   109   55   56 2    
   110   55   57 1    
   111   57   58 1    
   112   57   59 1    
   113   57  118 1    
   114   58  119 1    
   115   58  120 1    
   116   58  121 1    
   117   59   60 am   BACKBONE|DICT|INTERRES
   118   59  122 1    
   119   60   61 2    
   120   60   62 1    
   121   62   63 1    
   122   62   64 1    
   123   62  123 1    
   124   63  124 1    
   125   63  125 1    
   126   63  126 1    
   127   64   65 am   BACKBONE|DICT|INTERRES
   128   64  127 1    
   129   65   66 2    
@<TRIPOS>SUBSTRUCTURE
     1 UNK         1 GROUP             0       ****    0 ROOT    
