@<TRIPOS>MOLECULE
3R135
127   129    1
SMALL
USER_CHARGES


@<TRIPOS>ATOM
      1 CA        -78.5481   20.1907  -74.0033 C.3       0 UNK        -0.1998 
      2 C         -79.0294   20.9862  -72.7992 C.2       0 UNK         0.4909 
      3 O         -79.6639   20.4257  -71.9055 O.2       0 UNK        -0.5240 
      4 N         -78.7371   22.2926  -72.7716 N.am      1 UNK        -0.4739 
      5 CA        -79.1151   23.2222  -71.6978 C.3       1 UNK         0.0864 
      6 C6        -78.1930   24.4700  -71.6954 C.3       11 UNK        -0.0881 
      7 S7        -78.3154   25.4654  -73.2252 S.3       11 UNK        -0.2682 
      8 C8        -79.2839   26.9012  -72.6663 C.3       11 UNK         0.0289 
      9 C9        -78.4396   28.1645  -72.6315 C.ar      11 UNK        -0.0687 
     10 C10       -78.6259   29.1601  -73.5960 C.ar      11 UNK        -0.0823 
     11 C11       -77.8632   30.3310  -73.5590 C.ar      11 UNK        -0.0830 
     12 C12       -76.9342   30.5149  -72.5332 C.ar      11 UNK        -0.1021 
     13 C13       -76.7091   29.5118  -71.5888 C.ar      11 UNK        -0.0753 
     14 C14       -77.4725   28.3409  -71.6364 C.ar      11 UNK        -0.0933 
     15 C15       -75.6323   29.6892  -70.5291 C.3       11 UNK         0.0166 
     16 S16       -73.9714   29.3357  -71.1949 S.3       11 UNK        -0.2615 
     17 C17       -73.4785   30.9365  -71.9323 C.3       11 UNK        -0.0865 
     18 CA        -73.5430   30.9722  -73.4899 C.3       10 UNK         0.0862 
     19 C         -73.2805   32.3949  -74.0699 C.2       10 UNK         0.5551 
     20 N         -72.6726   32.5290  -75.2426 N.am      10 UNK        -0.7319 
     21 O         -73.6579   33.3951  -73.4639 O.2       10 UNK        -0.5018 
     22 N         -72.7835   29.8954  -74.1427 N.am      10 UNK        -0.4509 
     23 C         -71.4663   29.6694  -74.0615 C.2       10 UNK         0.4899 
     24 O         -70.6803   30.3626  -73.4135 O.2       10 UNK        -0.4839 
     25 CA        -70.9568   28.4551  -74.8604 C.3       9 UNK         0.0222 
     26 CB        -69.5028   28.0600  -74.5248 C.3       9 UNK        -0.1966 
     27 N         -71.8711   27.3133  -74.7472 N.am      9 UNK        -0.4218 
     28 C         -72.1694   26.6018  -73.6483 C.2       9 UNK         0.5020 
     29 O         -71.6081   26.7349  -72.5601 O.2       9 UNK        -0.5274 
     30 CA        -73.2970   25.5599  -73.7802 C.3       8 UNK         0.0270 
     31 CB        -74.6023   26.1045  -73.1789 C.3       8 UNK        -0.1976 
     32 N         -73.5521   25.1439  -75.1613 N.am      8 UNK        -0.4313 
     33 C         -72.7160   24.4101  -75.9090 C.2       8 UNK         0.5041 
     34 O         -71.6592   23.9325  -75.4948 O.2       8 UNK        -0.5577 
     35 CA        -73.1149   24.2042  -77.3771 C.3       7 UNK         0.0284 
     36 CB        -74.1045   23.0361  -77.5094 C.3       7 UNK        -0.1958 
     37 N         -73.6950   25.4227  -77.9505 N.am      7 UNK        -0.4454 
     38 C         -72.9737   26.4740  -78.3659 C.2       7 UNK         0.5089 
     39 O         -71.7438   26.5115  -78.3395 O.2       7 UNK        -0.5125 
     40 CA        -73.7452   27.6974  -78.8928 C.3       6 UNK         0.0408 
     41 CB        -73.9631   27.5801  -80.4094 C.3       6 UNK        -0.1791 
     42 N         -75.0353   27.9082  -78.2319 N.am      6 UNK        -0.4762 
     43 C         -75.1820   28.3075  -76.9600 C.2       6 UNK         0.5007 
     44 O         -74.2381   28.5267  -76.1992 O.2       6 UNK        -0.5032 
     45 CA        -76.6300   28.4260  -76.4395 C.3       5 UNK         0.0783 
     46 C46       -77.2876   29.7698  -76.8503 C.3       11 UNK        -0.0857 
     47 S47       -76.6995   31.2104  -75.8990 S.3       11 UNK        -0.2512 
     48 C48       -78.0067   31.3888  -74.6408 C.3       11 UNK         0.0225 
     49 N         -77.4880   27.3030  -76.8378 N.am      5 UNK        -0.4615 
     50 C         -77.2437   25.9974  -76.6760 C.2       4 UNK         0.5053 
     51 O         -76.1853   25.5471  -76.2341 O.2       4 UNK        -0.5105 
     52 CA        -78.3861   25.0447  -77.0811 C.3       4 UNK         0.0263 
     53 CB        -78.0289   23.5626  -76.8642 C.3       4 UNK        -0.1981 
     54 N         -79.6265   25.3359  -76.3559 N.am      4 UNK        -0.4224 
     55 C         -80.5021   26.3069  -76.6536 C.2       3 UNK         0.4895 
     56 O         -80.3145   27.1220  -77.5583 O.2       3 UNK        -0.5091 
     57 CA        -81.7910   26.3908  -75.8138 C.3       3 UNK         0.0250 
     58 CB        -83.0326   26.6401  -76.6922 C.3       3 UNK        -0.1996 
     59 N         -81.9994   25.1894  -74.9977 N.am      3 UNK        -0.4254 
     60 C         -82.5863   25.1662  -73.7931 C.2       2 UNK         0.5004 
     61 O         -83.0216   26.1639  -73.2182 O.2       2 UNK        -0.5226 
     62 CA        -82.6664   23.7955  -73.1037 C.3       2 UNK         0.0269 
     63 CB        -83.4298   22.7637  -73.9541 C.3       2 UNK        -0.1926 
     64 N         -81.3183   23.3048  -72.8169 N.am      2 UNK        -0.4687 
     65 C         -80.6088   23.6269  -71.7250 C.2       1 UNK         0.5165 
     66 O         -81.0778   24.2496  -70.7710 O.2       1 UNK        -0.5079 
     67 H67       -79.3965   19.7472  -74.5239 H         1 UNK         0.0900 
     68 H68       -78.0023   20.8127  -74.7127 H         1 UNK         0.0900 
     69 H69       -77.8878   19.3860  -73.6809 H         1 UNK         0.0900 
     70 H70       -78.2007   22.7038  -73.5224 H         1 UNK         0.2959 
     71 H71       -78.9636   22.7054  -70.7472 H         1 UNK         0.1079 
     72 H72       -77.1544   24.1533  -71.5893 H         1 UNK         0.0837 
     73 H73       -78.3884   25.0926  -70.8207 H         1 UNK         0.0837 
     74 H74       -79.7210   26.7240  -71.6831 H         1 UNK         0.0685 
     75 H75       -80.1279   27.0304  -73.3427 H         1 UNK         0.0685 
     76 H76       -79.3532   29.0180  -74.3834 H         1 UNK         0.1434 
     77 H77       -76.3547   31.4265  -72.4961 H         1 UNK         0.1329 
     78 H78       -77.3096   27.5602  -70.9062 H         1 UNK         0.1335 
     79 H79       -75.8183   29.0118  -69.6944 H         1 UNK         0.0680 
     80 H80       -75.6708   30.6963  -70.1119 H         1 UNK         0.0680 
     81 H81       -72.4656   31.1621  -71.5961 H         1 UNK         0.1032 
     82 H82       -74.1029   31.7232  -71.5069 H         1 UNK         0.1032 
     83 H83       -74.5705   30.7610  -73.7753 H         1 UNK         0.0461 
     84 H84       -72.3772   31.7150  -75.7566 H         1 UNK         0.3453 
     85 H85       -72.5159   33.4512  -75.6172 H         1 UNK         0.3453 
     86 H86       -73.3309   29.2987  -74.7584 H         1 UNK         0.2984 
     87 H87       -70.9800   28.7510  -75.9103 H         1 UNK         0.0554 
     88 H88       -68.8160   28.8750  -74.7559 H         1 UNK         0.0847 
     89 H89       -69.1838   27.1932  -75.1036 H         1 UNK         0.0847 
     90 H90       -69.3776   27.8236  -73.4679 H         1 UNK         0.0847 
     91 H91       -72.4394   27.1379  -75.5653 H         1 UNK         0.3141 
     92 H92       -72.9978   24.6776  -73.2107 H         1 UNK         0.0743 
     93 H93       -74.4655   26.3925  -72.1359 H         1 UNK         0.0784 
     94 H94       -74.9621   26.9842  -73.7148 H         1 UNK         0.0784 
     95 H95       -75.3884   25.3512  -73.2056 H         1 UNK         0.0784 
     96 H96       -74.4422   25.4280  -75.5680 H         1 UNK         0.3213 
     97 H97       -72.2144   23.9489  -77.9406 H         1 UNK         0.0855 
     98 H98       -74.9828   23.1791  -76.8809 H         1 UNK         0.0814 
     99 H99       -73.6382   22.0999  -77.1997 H         1 UNK         0.0814 
    100 H100      -74.4390   22.9073  -78.5388 H         1 UNK         0.0814 
    101 H101      -74.7030   25.5019  -77.9319 H         1 UNK         0.3105 
    102 H102      -73.1270   28.5788  -78.7082 H         1 UNK         0.0547 
    103 H103      -74.4304   28.4777  -80.8146 H         1 UNK         0.0837 
    104 H104      -73.0135   27.4492  -80.9304 H         1 UNK         0.0837 
    105 H105      -74.5937   26.7273  -80.6641 H         1 UNK         0.0837 
    106 H106      -75.8663   27.7343  -78.7790 H         1 UNK         0.3020 
    107 H107      -76.5681   28.3834  -75.3500 H         1 UNK         0.1245 
    108 H108      -78.3702   29.7108  -76.7275 H         1 UNK         0.0781 
    109 H109      -77.1338   29.9706  -77.9123 H         1 UNK         0.0781 
    110 H110      -78.9916   31.3434  -75.1081 H         1 UNK         0.0836 
    111 H111      -77.9303   32.3809  -74.1930 H         1 UNK         0.0836 
    112 H112      -78.4013   27.5448  -77.2092 H         1 UNK         0.3022 
    113 H113      -78.5645   25.1885  -78.1489 H         1 UNK         0.0747 
    114 H114      -78.8661   22.9095  -77.1107 H         1 UNK         0.0793 
    115 H115      -77.1993   23.2688  -77.5065 H         1 UNK         0.0793 
    116 H116      -77.7364   23.3617  -75.8329 H         1 UNK         0.0793 
    117 H117      -79.7797   24.7971  -75.5175 H         1 UNK         0.3047 
    118 H118      -81.6627   27.2531  -75.1567 H         1 UNK         0.0822 
    119 H119      -82.9245   27.5518  -77.2813 H         1 UNK         0.0807 
    120 H120      -83.9309   26.7569  -76.0858 H         1 UNK         0.0807 
    121 H121      -83.2027   25.8181  -77.3884 H         1 UNK         0.0807 
    122 H122      -81.7141   24.3147  -75.4137 H         1 UNK         0.2946 
    123 H123      -83.2151   23.9272  -72.1677 H         1 UNK         0.1144 
    124 H124      -83.5694   21.8324  -73.4047 H         1 UNK         0.0793 
    125 H125      -82.9132   22.5234  -74.8836 H         1 UNK         0.0793 
    126 H126      -84.4220   23.1335  -74.2168 H         1 UNK         0.0793 
    127 H127      -80.8531   22.7715  -73.5359 H         1 UNK         0.2896 
@<TRIPOS>BOND
     1    1    2 1    
     2    1   67 1    
     3    1   68 1    
     4    1   69 1    
     5    2    3 2    
     6    2    4 am   BACKBONE|DICT|INTERRES
     7    4    5 1    
     8    4   70 1    
     9    5    6 1    
    10    5   65 1    
    11    5   71 1    
    12    6    7 1    
    13    6   72 1    
    14    6   73 1    
    15    7    8 1    
    16    8    9 1    
    17    8   74 1    
    18    8   75 1    
    19    9   10 ar   
    20    9   14 ar   
    21   10   11 ar   
    22   10   76 1    
    23   11   12 ar   
    24   11   48 1    
    25   12   13 ar   
    26   12   77 1    
    27   13   14 ar   
    28   13   15 1    
    29   14   78 1    
    30   15   16 1    
    31   15   79 1    
    32   15   80 1    
    33   16   17 1    
    34   17   18 1    
    35   17   81 1    
    36   17   82 1    
    37   18   19 1    
    38   18   22 1    
    39   18   83 1    
    40   19   20 am   BACKBONE|DICT|INTERRES
    41   19   21 2    
    42   20   84 1    
    43   20   85 1    
    44   22   23 am   BACKBONE|DICT|INTERRES
    45   22   86 1    
    46   23   24 2    
    47   23   25 1    
    48   25   26 1    
    49   25   27 1    
    50   25   87 1    
    51   26   88 1    
    52   26   89 1    
    53   26   90 1    
    54   27   28 am   BACKBONE|DICT|INTERRES
    55   27   91 1    
    56   28   29 2    
    57   28   30 1    
    58   30   31 1    
    59   30   32 1    
    60   30   92 1    
    61   31   93 1    
    62   31   94 1    
    63   31   95 1    
    64   32   33 am   BACKBONE|DICT|INTERRES
    65   32   96 1    
    66   33   34 2    
    67   33   35 1    
    68   35   36 1    
    69   35   37 1    
    70   35   97 1    
    71   36   98 1    
    72   36   99 1    
    73   36  100 1    
    74   37   38 am   BACKBONE|DICT|INTERRES
    75   37  101 1    
    76   38   39 2    
    77   38   40 1    
    78   40   41 1    
    79   40   42 1    
    80   40  102 1    
    81   41  103 1    
    82   41  104 1    
    83   41  105 1    
    84   42   43 am   BACKBONE|DICT|INTERRES
    85   42  106 1    
    86   43   44 2    
    87   43   45 1    
    88   45   46 1    
    89   45   49 1    
    90   45  107 1    
    91   46   47 1    
    92   46  108 1    
    93   46  109 1    
    94   47   48 1    
    95   48  110 1    
    96   48  111 1    
    97   49   50 am   BACKBONE|DICT|INTERRES
    98   49  112 1    
    99   50   51 2    
   100   50   52 1    
   101   52   53 1    
   102   52   54 1    
   103   52  113 1    
   104   53  114 1    
   105   53  115 1    
   106   53  116 1    
   107   54   55 am   BACKBONE|DICT|INTERRES
   108   54  117 1    
   109   55   56 2    
   110   55   57 1    
   111   57   58 1    
   112   57   59 1    
   113   57  118 1    
   114   58  119 1    
   115   58  120 1    
   116   58  121 1    
   117   59   60 am   BACKBONE|DICT|INTERRES
   118   59  122 1    
   119   60   61 2    
   120   60   62 1    
   121   62   63 1    
   122   62   64 1    
   123   62  123 1    
   124   63  124 1    
   125   63  125 1    
   126   63  126 1    
   127   64   65 am   BACKBONE|DICT|INTERRES
   128   64  127 1    
   129   65   66 2    
@<TRIPOS>SUBSTRUCTURE
     1 UNK         1 GROUP             0       ****    0 ROOT    
