@<TRIPOS>MOLECULE
3R135
127   129    1
SMALL
USER_CHARGES


@<TRIPOS>ATOM
      1 CA        -77.1623   25.7403  -72.5555 C.3       0 UNK        -0.1998 
      2 C         -78.3128   25.1840  -71.7328 C.2       0 UNK         0.4909 
      3 O         -78.3439   23.9856  -71.4526 O.2       0 UNK        -0.5240 
      4 N         -79.2598   26.0458  -71.3386 N.am      1 UNK        -0.4739 
      5 CA        -80.4975   25.6381  -70.6632 C.3       1 UNK         0.0864 
      6 C6        -80.9475   26.6629  -69.5843 C.3       11 UNK        -0.0881 
      7 S7        -81.8308   28.1557  -70.1665 S.3       11 UNK        -0.2682 
      8 C8        -80.5145   29.4150  -70.2100 C.3       11 UNK         0.0289 
      9 C9        -79.6063   29.2873  -71.4275 C.ar      11 UNK        -0.0687 
     10 C10       -80.1481   29.1876  -72.7134 C.ar      11 UNK        -0.0823 
     11 C11       -79.3175   29.1060  -73.8349 C.ar      11 UNK        -0.0830 
     12 C12       -77.9298   29.1563  -73.6657 C.ar      11 UNK        -0.1021 
     13 C13       -77.3755   29.2521  -72.3858 C.ar      11 UNK        -0.0753 
     14 C14       -78.2177   29.3126  -71.2714 C.ar      11 UNK        -0.0933 
     15 C15       -75.8677   29.2827  -72.1976 C.3       11 UNK         0.0166 
     16 S16       -75.2557   30.9916  -72.0892 S.3       11 UNK        -0.2615 
     17 C17       -73.5704   30.7219  -71.4401 C.3       11 UNK        -0.0865 
     18 CA        -72.4493   31.1069  -72.4398 C.3       10 UNK         0.0862 
     19 C         -71.0561   30.9660  -71.7552 C.2       10 UNK         0.5551 
     20 N         -70.2394   29.9761  -72.0992 N.am      10 UNK        -0.7319 
     21 O         -70.7149   31.7726  -70.8937 O.2       10 UNK        -0.5018 
     22 N         -72.5753   30.3806  -73.7130 N.am      10 UNK        -0.4509 
     23 C         -71.8892   30.6622  -74.8282 C.2       10 UNK         0.4899 
     24 O         -71.1889   31.6677  -74.9582 O.2       10 UNK        -0.4839 
     25 CA        -71.9931   29.6522  -75.9914 C.3       9 UNK         0.0222 
     26 CB        -70.6888   29.5737  -76.8115 C.3       9 UNK        -0.1966 
     27 N         -72.4210   28.3000  -75.6037 N.am      9 UNK        -0.4218 
     28 C         -71.8468   27.4758  -74.7118 C.2       9 UNK         0.5020 
     29 O         -70.8893   27.7841  -74.0002 O.2       9 UNK        -0.5274 
     30 CA        -72.4563   26.0693  -74.5896 C.3       8 UNK         0.0270 
     31 CB        -73.7836   26.1104  -73.8140 C.3       8 UNK        -0.1976 
     32 N         -72.6671   25.4359  -75.8931 N.am      8 UNK        -0.4313 
     33 C         -71.6874   25.0788  -76.7373 C.2       8 UNK         0.5041 
     34 O         -70.4865   25.1744  -76.4813 O.2       8 UNK        -0.5577 
     35 CA        -72.1201   24.5354  -78.1069 C.3       7 UNK         0.0284 
     36 CB        -72.4751   23.0423  -78.0197 C.3       7 UNK        -0.1958 
     37 N         -73.2553   25.2897  -78.6410 N.am      7 UNK        -0.4454 
     38 C         -73.1438   26.4694  -79.2680 C.2       7 UNK         0.5089 
     39 O         -72.0678   27.0054  -79.5334 O.2       7 UNK        -0.5125 
     40 CA        -74.4499   27.1780  -79.6710 C.3       6 UNK         0.0408 
     41 CB        -74.8172   26.8374  -81.1238 C.3       6 UNK        -0.1791 
     42 N         -75.5839   26.8611  -78.7982 N.am      6 UNK        -0.4762 
     43 C         -75.6987   27.2620  -77.5237 C.2       6 UNK         0.5007 
     44 O         -74.8565   27.9426  -76.9399 O.2       6 UNK        -0.5032 
     45 CA        -76.9453   26.7840  -76.7560 C.3       5 UNK         0.0783 
     46 C46       -78.1301   27.7425  -77.0196 C.3       11 UNK        -0.0857 
     47 S47       -79.5904   27.3687  -75.9883 S.3       11 UNK        -0.2512 
     48 C48       -79.9300   28.9891  -75.2237 C.3       11 UNK         0.0225 
     49 N         -77.2931   25.3869  -77.0427 N.am      5 UNK        -0.4615 
     50 C         -76.4916   24.3263  -76.8672 C.2       4 UNK         0.5053 
     51 O         -75.3078   24.4217  -76.5364 O.2       4 UNK        -0.5105 
     52 CA        -77.1135   22.9343  -77.1199 C.3       4 UNK         0.0263 
     53 CB        -76.3590   21.8123  -76.3751 C.3       4 UNK        -0.1981 
     54 N         -78.5564   22.8627  -76.8327 N.am      4 UNK        -0.4224 
     55 C         -79.1480   23.1369  -75.6605 C.2       3 UNK         0.4895 
     56 O         -78.5440   23.4897  -74.6469 O.2       3 UNK        -0.5091 
     57 CA        -80.6726   23.0133  -75.6062 C.3       3 UNK         0.0250 
     58 CB        -81.1036   21.6489  -75.0409 C.3       3 UNK        -0.1996 
     59 N         -81.1543   24.0900  -74.7504 N.am      3 UNK        -0.4254 
     60 C         -82.3504   24.6812  -74.8193 C.2       2 UNK         0.5004 
     61 O         -83.2543   24.3027  -75.5664 O.2       2 UNK        -0.5226 
     62 CA        -82.5555   25.9323  -73.9430 C.3       2 UNK         0.0269 
     63 CB        -84.0193   26.1192  -73.4888 C.3       2 UNK        -0.1926 
     64 N         -81.6209   26.0298  -72.8121 N.am      2 UNK        -0.4687 
     65 C         -81.5940   25.2857  -71.6927 C.2       1 UNK         0.5165 
     66 O         -82.3647   24.3534  -71.4618 O.2       1 UNK        -0.5079 
     67 H67       -77.5318   26.4185  -73.3225 H         1 UNK         0.0900 
     68 H68       -76.4555   26.2707  -71.9189 H         1 UNK         0.0900 
     69 H69       -76.6329   24.9327  -73.0611 H         1 UNK         0.0900 
     70 H70       -79.1692   27.0309  -71.5522 H         1 UNK         0.2959 
     71 H71       -80.2968   24.7116  -70.1196 H         1 UNK         0.1079 
     72 H72       -80.0934   26.9603  -68.9738 H         1 UNK         0.0837 
     73 H73       -81.6247   26.1601  -68.8916 H         1 UNK         0.0837 
     74 H74       -79.9426   29.3717  -69.2818 H         1 UNK         0.0685 
     75 H75       -80.9814   30.4005  -70.2351 H         1 UNK         0.0685 
     76 H76       -81.2229   29.1824  -72.8377 H         1 UNK         0.1434 
     77 H77       -77.2792   29.1152  -74.5277 H         1 UNK         0.1329 
     78 H78       -77.7873   29.3993  -70.2827 H         1 UNK         0.1335 
     79 H79       -75.6075   28.7382  -71.2885 H         1 UNK         0.0680 
     80 H80       -75.3686   28.7704  -73.0212 H         1 UNK         0.0680 
     81 H81       -73.4530   29.6839  -71.1234 H         1 UNK         0.1032 
     82 H82       -73.4807   31.3183  -70.5297 H         1 UNK         0.1032 
     83 H83       -72.5677   32.1676  -72.6699 H         1 UNK         0.0461 
     84 H84       -70.5110   29.2935  -72.8009 H         1 UNK         0.3453 
     85 H85       -69.3417   29.8993  -71.6490 H         1 UNK         0.3453 
     86 H86       -73.1322   29.5413  -73.6961 H         1 UNK         0.2984 
     87 H87       -72.7748   30.0335  -76.6498 H         1 UNK         0.0554 
     88 H88       -70.4258   30.5451  -77.2317 H         1 UNK         0.0847 
     89 H89       -70.7877   28.8789  -77.6459 H         1 UNK         0.0847 
     90 H90       -69.8486   29.2439  -76.1994 H         1 UNK         0.0847 
     91 H91       -73.2517   27.9711  -76.0949 H         1 UNK         0.3141 
     92 H92       -71.7532   25.4506  -74.0280 H         1 UNK         0.0743 
     93 H93       -73.6500   26.5662  -72.8319 H         1 UNK         0.0784 
     94 H94       -74.5465   26.6826  -74.3421 H         1 UNK         0.0784 
     95 H95       -74.1743   25.1053  -73.6539 H         1 UNK         0.0784 
     96 H96       -73.6288   25.2412  -76.1620 H         1 UNK         0.3213 
     97 H97       -71.2746   24.6381  -78.7912 H         1 UNK         0.0855 
     98 H98       -73.2870   22.8568  -77.3173 H         1 UNK         0.0814 
     99 H99       -71.6167   22.4603  -77.6816 H         1 UNK         0.0814 
    100 H100      -72.7724   22.6465  -78.9908 H         1 UNK         0.0814 
    101 H101      -74.1788   24.9474  -78.4128 H         1 UNK         0.3105 
    102 H102      -74.2699   28.2537  -79.6102 H         1 UNK         0.0547 
    103 H103      -74.0004   27.0899  -81.8015 H         1 UNK         0.0837 
    104 H104      -75.0276   25.7747  -81.2505 H         1 UNK         0.0837 
    105 H105      -75.6928   27.3963  -81.4544 H         1 UNK         0.0837 
    106 H106      -76.3219   26.2944  -79.1915 H         1 UNK         0.3020 
    107 H107      -76.6956   26.8343  -75.6944 H         1 UNK         0.1245 
    108 H108      -78.4379   27.6925  -78.0659 H         1 UNK         0.0781 
    109 H109      -77.8216   28.7757  -76.8513 H         1 UNK         0.0781 
    110 H110      -81.0126   29.1133  -75.1708 H         1 UNK         0.0836 
    111 H111      -79.5748   29.8034  -75.8562 H         1 UNK         0.0836 
    112 H112      -78.2537   25.2200  -77.3029 H         1 UNK         0.3022 
    113 H113      -77.0049   22.7492  -78.1894 H         1 UNK         0.0747 
    114 H114      -76.8103   20.8380  -76.5620 H         1 UNK         0.0793 
    115 H115      -76.3522   21.9778  -75.2971 H         1 UNK         0.0793 
    116 H116      -75.3204   21.7522  -76.7003 H         1 UNK         0.0793 
    117 H117      -79.1409   22.5848  -77.6099 H         1 UNK         0.3047 
    118 H118      -81.0786   23.1411  -76.6121 H         1 UNK         0.0822 
    119 H119      -82.1895   21.5611  -75.0009 H         1 UNK         0.0807 
    120 H120      -80.7182   21.4933  -74.0323 H         1 UNK         0.0807 
    121 H121      -80.7340   20.8330  -75.6632 H         1 UNK         0.0807 
    122 H122      -80.4505   24.4674  -74.1277 H         1 UNK         0.2946 
    123 H123      -82.3173   26.7751  -74.5936 H         1 UNK         0.1144 
    124 H124      -84.6828   26.2327  -74.3469 H         1 UNK         0.0793 
    125 H125      -84.1328   27.0116  -72.8731 H         1 UNK         0.0793 
    126 H126      -84.3798   25.2656  -72.9146 H         1 UNK         0.0793 
    127 H127      -80.9206   26.7526  -72.8957 H         1 UNK         0.2896 
@<TRIPOS>BOND
     1    1    2 1    
     2    1   67 1    
     3    1   68 1    
     4    1   69 1    
     5    2    3 2    
     6    2    4 am   BACKBONE|DICT|INTERRES
     7    4    5 1    
     8    4   70 1    
     9    5    6 1    
    10    5   65 1    
    11    5   71 1    
    12    6    7 1    
    13    6   72 1    
    14    6   73 1    
    15    7    8 1    
    16    8    9 1    
    17    8   74 1    
    18    8   75 1    
    19    9   10 ar   
    20    9   14 ar   
    21   10   11 ar   
    22   10   76 1    
    23   11   12 ar   
    24   11   48 1    
    25   12   13 ar   
    26   12   77 1    
    27   13   14 ar   
    28   13   15 1    
    29   14   78 1    
    30   15   16 1    
    31   15   79 1    
    32   15   80 1    
    33   16   17 1    
    34   17   18 1    
    35   17   81 1    
    36   17   82 1    
    37   18   19 1    
    38   18   22 1    
    39   18   83 1    
    40   19   20 am   BACKBONE|DICT|INTERRES
    41   19   21 2    
    42   20   84 1    
    43   20   85 1    
    44   22   23 am   BACKBONE|DICT|INTERRES
    45   22   86 1    
    46   23   24 2    
    47   23   25 1    
    48   25   26 1    
    49   25   27 1    
    50   25   87 1    
    51   26   88 1    
    52   26   89 1    
    53   26   90 1    
    54   27   28 am   BACKBONE|DICT|INTERRES
    55   27   91 1    
    56   28   29 2    
    57   28   30 1    
    58   30   31 1    
    59   30   32 1    
    60   30   92 1    
    61   31   93 1    
    62   31   94 1    
    63   31   95 1    
    64   32   33 am   BACKBONE|DICT|INTERRES
    65   32   96 1    
    66   33   34 2    
    67   33   35 1    
    68   35   36 1    
    69   35   37 1    
    70   35   97 1    
    71   36   98 1    
    72   36   99 1    
    73   36  100 1    
    74   37   38 am   BACKBONE|DICT|INTERRES
    75   37  101 1    
    76   38   39 2    
    77   38   40 1    
    78   40   41 1    
    79   40   42 1    
    80   40  102 1    
    81   41  103 1    
    82   41  104 1    
    83   41  105 1    
    84   42   43 am   BACKBONE|DICT|INTERRES
    85   42  106 1    
    86   43   44 2    
    87   43   45 1    
    88   45   46 1    
    89   45   49 1    
    90   45  107 1    
    91   46   47 1    
    92   46  108 1    
    93   46  109 1    
    94   47   48 1    
    95   48  110 1    
    96   48  111 1    
    97   49   50 am   BACKBONE|DICT|INTERRES
    98   49  112 1    
    99   50   51 2    
   100   50   52 1    
   101   52   53 1    
   102   52   54 1    
   103   52  113 1    
   104   53  114 1    
   105   53  115 1    
   106   53  116 1    
   107   54   55 am   BACKBONE|DICT|INTERRES
   108   54  117 1    
   109   55   56 2    
   110   55   57 1    
   111   57   58 1    
   112   57   59 1    
   113   57  118 1    
   114   58  119 1    
   115   58  120 1    
   116   58  121 1    
   117   59   60 am   BACKBONE|DICT|INTERRES
   118   59  122 1    
   119   60   61 2    
   120   60   62 1    
   121   62   63 1    
   122   62   64 1    
   123   62  123 1    
   124   63  124 1    
   125   63  125 1    
   126   63  126 1    
   127   64   65 am   BACKBONE|DICT|INTERRES
   128   64  127 1    
   129   65   66 2    
@<TRIPOS>SUBSTRUCTURE
     1 UNK         1 GROUP             0       ****    0 ROOT    
