@<TRIPOS>MOLECULE
3R135
127   129    1
SMALL
USER_CHARGES


@<TRIPOS>ATOM
      1 CA        -80.1658   29.3850  -71.0484 C.3       0 UNK        -0.1998 
      2 C         -80.8188   29.1535  -72.4012 C.2       0 UNK         0.4909 
      3 O         -82.0437   29.0627  -72.4884 O.2       0 UNK        -0.5240 
      4 N         -80.0043   29.0603  -73.4600 N.am      1 UNK        -0.4739 
      5 CA        -80.4482   28.8678  -74.8499 C.3       1 UNK         0.0864 
      6 C6        -79.3595   29.2397  -75.8906 C.3       11 UNK        -0.0881 
      7 S7        -78.5273   30.8300  -75.5464 S.3       11 UNK        -0.2682 
      8 C8        -76.8415   30.2752  -75.1362 C.3       11 UNK         0.0289 
      9 C9        -76.7781   29.5411  -73.8041 C.ar      11 UNK        -0.0687 
     10 C10       -76.8795   28.1465  -73.7558 C.ar      11 UNK        -0.0823 
     11 C11       -76.8699   27.4732  -72.5300 C.ar      11 UNK        -0.0830 
     12 C12       -76.7160   28.2062  -71.3502 C.ar      11 UNK        -0.1021 
     13 C13       -76.5985   29.5986  -71.3863 C.ar      11 UNK        -0.0753 
     14 C14       -76.6329   30.2617  -72.6159 C.ar      11 UNK        -0.0933 
     15 C15       -76.4887   30.3820  -70.0880 C.3       11 UNK         0.0166 
     16 S16       -74.7855   30.4086  -69.4535 S.3       11 UNK        -0.2615 
     17 C17       -74.0279   31.7562  -70.4321 C.3       11 UNK        -0.0865 
     18 CA        -72.6670   31.3898  -71.0817 C.3       10 UNK         0.0862 
     19 C         -71.5573   31.1405  -70.0160 C.2       10 UNK         0.5551 
     20 N         -71.0114   32.2018  -69.4368 N.am      10 UNK        -0.7319 
     21 O         -71.2092   30.0067  -69.6895 O.2       10 UNK        -0.5018 
     22 N         -72.8128   30.3127  -72.0734 N.am      10 UNK        -0.4509 
     23 C         -71.8434   29.9040  -72.9037 C.2       10 UNK         0.4899 
     24 O         -70.7294   30.4259  -72.9686 O.2       10 UNK        -0.4839 
     25 CA        -72.1740   28.7186  -73.8279 C.3       9 UNK         0.0222 
     26 CB        -72.9340   27.5976  -73.0964 C.3       9 UNK        -0.1966 
     27 N         -72.9309   29.1335  -75.0106 N.am      9 UNK        -0.4218 
     28 C         -72.4849   29.9318  -75.9897 C.2       9 UNK         0.5020 
     29 O         -71.3357   30.3717  -76.0550 O.2       9 UNK        -0.5274 
     30 CA        -73.4920   30.2643  -77.1073 C.3       8 UNK         0.0270 
     31 CB        -73.0813   31.5079  -77.9183 C.3       8 UNK        -0.1976 
     32 N         -73.6817   29.1408  -78.0264 N.am      8 UNK        -0.4313 
     33 C         -74.3316   28.0053  -77.7468 C.2       8 UNK         0.5041 
     34 O         -74.8739   27.7658  -76.6621 O.2       8 UNK        -0.5577 
     35 CA        -74.3671   26.9548  -78.8612 C.3       7 UNK         0.0284 
     36 CB        -72.9951   26.2661  -79.0056 C.3       7 UNK        -0.1958 
     37 N         -75.3861   25.9744  -78.5110 N.am      7 UNK        -0.4454 
     38 C         -75.9192   25.0445  -79.3097 C.2       7 UNK         0.5089 
     39 O         -75.6550   24.9478  -80.5095 O.2       7 UNK        -0.5125 
     40 CA        -76.9125   24.0575  -78.6547 C.3       6 UNK         0.0408 
     41 CB        -76.9558   22.6992  -79.3854 C.3       6 UNK        -0.1791 
     42 N         -76.6951   23.8707  -77.2110 N.am      6 UNK        -0.4762 
     43 C         -75.5750   23.4294  -76.6080 C.2       6 UNK         0.5007 
     44 O         -74.5728   23.0343  -77.2038 O.2       6 UNK        -0.5032 
     45 CA        -75.5786   23.4600  -75.0720 C.3       5 UNK         0.0783 
     46 C46       -75.5183   24.9243  -74.5717 C.3       11 UNK        -0.0857 
     47 S47       -75.5233   25.0503  -72.7529 S.3       11 UNK        -0.2512 
     48 C48       -77.0695   25.9640  -72.4651 C.3       11 UNK         0.0225 
     49 N         -76.7525   22.7301  -74.5916 N.am      5 UNK        -0.4615 
     50 C         -76.7475   21.4288  -74.2690 C.2       4 UNK         0.5053 
     51 O         -75.7293   20.7394  -74.2049 O.2       4 UNK        -0.5105 
     52 CA        -78.1135   20.7711  -73.9950 C.3       4 UNK         0.0263 
     53 CB        -78.4688   20.8723  -72.5028 C.3       4 UNK        -0.1981 
     54 N         -79.1914   21.3621  -74.7902 N.am      4 UNK        -0.4224 
     55 C         -79.2659   21.3339  -76.1295 C.2       3 UNK         0.4895 
     56 O         -78.5343   20.6417  -76.8366 O.2       3 UNK        -0.5091 
     57 CA        -80.3074   22.2528  -76.7997 C.3       3 UNK         0.0250 
     58 CB        -81.4376   21.4213  -77.4282 C.3       3 UNK        -0.1996 
     59 N         -80.8920   23.2554  -75.8998 N.am      3 UNK        -0.4254 
     60 C         -80.2324   24.2755  -75.3331 C.2       2 UNK         0.5004 
     61 O         -79.0312   24.5067  -75.5110 O.2       2 UNK        -0.5226 
     62 CA        -81.0338   25.0905  -74.3081 C.3       2 UNK         0.0269 
     63 CB        -80.8875   24.4688  -72.9086 C.3       2 UNK        -0.1926 
     64 N         -80.5993   26.4835  -74.2508 N.am      2 UNK        -0.4687 
     65 C         -80.9701   27.4380  -75.1153 C.2       1 UNK         0.5165 
     66 O         -81.7033   27.2309  -76.0836 O.2       1 UNK        -0.5079 
     67 H67       -80.9113   29.6523  -70.2998 H         1 UNK         0.0900 
     68 H68       -79.4416   30.1969  -71.1047 H         1 UNK         0.0900 
     69 H69       -79.6545   28.4832  -70.7130 H         1 UNK         0.0900 
     70 H70       -79.0058   29.1711  -73.3347 H         1 UNK         0.2959 
     71 H71       -81.2946   29.5396  -75.0105 H         1 UNK         0.1079 
     72 H72       -78.6147   28.4489  -75.9819 H         1 UNK         0.0837 
     73 H73       -79.8133   29.3174  -76.8805 H         1 UNK         0.0837 
     74 H74       -76.4785   29.6387  -75.9416 H         1 UNK         0.0685 
     75 H75       -76.1841   31.1452  -75.1068 H         1 UNK         0.0685 
     76 H76       -76.9870   27.5897  -74.6746 H         1 UNK         0.1434 
     77 H77       -76.7046   27.6951  -70.3970 H         1 UNK         0.1329 
     78 H78       -76.5653   31.3404  -72.6499 H         1 UNK         0.1335 
     79 H79       -77.1319   29.9229  -69.3356 H         1 UNK         0.0680 
     80 H80       -76.8562   31.4017  -70.2139 H         1 UNK         0.0680 
     81 H81       -73.9130   32.6235  -69.7795 H         1 UNK         0.1032 
     82 H82       -74.7195   32.0785  -71.2108 H         1 UNK         0.1032 
     83 H83       -72.3473   32.2645  -71.6521 H         1 UNK         0.0461 
     84 H84       -71.2884   33.1373  -69.6907 H         1 UNK         0.3453 
     85 H85       -70.2998   32.0644  -68.7360 H         1 UNK         0.3453 
     86 H86       -73.6867   29.8077  -72.0505 H         1 UNK         0.2984 
     87 H87       -71.2244   28.3018  -74.1699 H         1 UNK         0.0554 
     88 H88       -72.9766   26.6954  -73.7055 H         1 UNK         0.0847 
     89 H89       -73.9587   27.8803  -72.8539 H         1 UNK         0.0847 
     90 H90       -72.4381   27.3285  -72.1626 H         1 UNK         0.0847 
     91 H91       -73.8574   28.7362  -75.1278 H         1 UNK         0.3141 
     92 H92       -74.4460   30.4909  -76.6336 H         1 UNK         0.0743 
     93 H93       -73.8500   31.7815  -78.6414 H         1 UNK         0.0784 
     94 H94       -72.9342   32.3683  -77.2640 H         1 UNK         0.0784 
     95 H95       -72.1494   31.3496  -78.4627 H         1 UNK         0.0784 
     96 H96       -73.2406   29.2303  -78.9307 H         1 UNK         0.3213 
     97 H97       -74.6461   27.4418  -79.7980 H         1 UNK         0.0855 
     98 H98       -72.7044   25.7582  -78.0848 H         1 UNK         0.0814 
     99 H99       -72.2112   26.9858  -79.2441 H         1 UNK         0.0814 
    100 H100      -73.0012   25.5252  -79.8050 H         1 UNK         0.0814 
    101 H101      -75.6856   26.0397  -77.5455 H         1 UNK         0.3105 
    102 H102      -77.8980   24.5148  -78.7523 H         1 UNK         0.0547 
    103 H103      -77.2392   22.8240  -80.4310 H         1 UNK         0.0837 
    104 H104      -75.9867   22.2000  -79.3697 H         1 UNK         0.0837 
    105 H105      -77.6854   22.0275  -78.9363 H         1 UNK         0.0837 
    106 H106      -77.4686   24.1667  -76.6197 H         1 UNK         0.3020 
    107 H107      -74.6693   22.9586  -74.7314 H         1 UNK         0.1245 
    108 H108      -76.3497   25.4974  -74.9805 H         1 UNK         0.0781 
    109 H109      -74.6132   25.4127  -74.9372 H         1 UNK         0.0781 
    110 H110      -77.4571   25.6823  -71.4849 H         1 UNK         0.0836 
    111 H111      -77.8273   25.6518  -73.1842 H         1 UNK         0.0836 
    112 H112      -77.6360   23.2210  -74.6513 H         1 UNK         0.3022 
    113 H113      -78.0359   19.7153  -74.2634 H         1 UNK         0.0747 
    114 H114      -79.4032   20.3567  -72.2803 H         1 UNK         0.0793 
    115 H115      -77.6934   20.4143  -71.8870 H         1 UNK         0.0793 
    116 H116      -78.5701   21.9093  -72.1795 H         1 UNK         0.0793 
    117 H117      -79.8628   21.9270  -74.2934 H         1 UNK         0.3047 
    118 H118      -79.7905   22.7877  -77.5993 H         1 UNK         0.0822 
    119 H119      -82.1360   22.0516  -77.9791 H         1 UNK         0.0807 
    120 H120      -82.0020   20.8710  -76.6743 H         1 UNK         0.0807 
    121 H121      -81.0397   20.6909  -78.1343 H         1 UNK         0.0807 
    122 H122      -81.8702   23.1314  -75.6788 H         1 UNK         0.2946 
    123 H123      -82.0897   25.0714  -74.5891 H         1 UNK         0.1144 
    124 H124      -81.4447   25.0372  -72.1634 H         1 UNK         0.0793 
    125 H125      -79.8468   24.4264  -72.5859 H         1 UNK         0.0793 
    126 H126      -81.2764   23.4500  -72.8875 H         1 UNK         0.0793 
    127 H127      -79.9811   26.7432  -73.4976 H         1 UNK         0.2896 
@<TRIPOS>BOND
     1    1    2 1    
     2    1   67 1    
     3    1   68 1    
     4    1   69 1    
     5    2    3 2    
     6    2    4 am   BACKBONE|DICT|INTERRES
     7    4    5 1    
     8    4   70 1    
     9    5    6 1    
    10    5   65 1    
    11    5   71 1    
    12    6    7 1    
    13    6   72 1    
    14    6   73 1    
    15    7    8 1    
    16    8    9 1    
    17    8   74 1    
    18    8   75 1    
    19    9   10 ar   
    20    9   14 ar   
    21   10   11 ar   
    22   10   76 1    
    23   11   12 ar   
    24   11   48 1    
    25   12   13 ar   
    26   12   77 1    
    27   13   14 ar   
    28   13   15 1    
    29   14   78 1    
    30   15   16 1    
    31   15   79 1    
    32   15   80 1    
    33   16   17 1    
    34   17   18 1    
    35   17   81 1    
    36   17   82 1    
    37   18   19 1    
    38   18   22 1    
    39   18   83 1    
    40   19   20 am   BACKBONE|DICT|INTERRES
    41   19   21 2    
    42   20   84 1    
    43   20   85 1    
    44   22   23 am   BACKBONE|DICT|INTERRES
    45   22   86 1    
    46   23   24 2    
    47   23   25 1    
    48   25   26 1    
    49   25   27 1    
    50   25   87 1    
    51   26   88 1    
    52   26   89 1    
    53   26   90 1    
    54   27   28 am   BACKBONE|DICT|INTERRES
    55   27   91 1    
    56   28   29 2    
    57   28   30 1    
    58   30   31 1    
    59   30   32 1    
    60   30   92 1    
    61   31   93 1    
    62   31   94 1    
    63   31   95 1    
    64   32   33 am   BACKBONE|DICT|INTERRES
    65   32   96 1    
    66   33   34 2    
    67   33   35 1    
    68   35   36 1    
    69   35   37 1    
    70   35   97 1    
    71   36   98 1    
    72   36   99 1    
    73   36  100 1    
    74   37   38 am   BACKBONE|DICT|INTERRES
    75   37  101 1    
    76   38   39 2    
    77   38   40 1    
    78   40   41 1    
    79   40   42 1    
    80   40  102 1    
    81   41  103 1    
    82   41  104 1    
    83   41  105 1    
    84   42   43 am   BACKBONE|DICT|INTERRES
    85   42  106 1    
    86   43   44 2    
    87   43   45 1    
    88   45   46 1    
    89   45   49 1    
    90   45  107 1    
    91   46   47 1    
    92   46  108 1    
    93   46  109 1    
    94   47   48 1    
    95   48  110 1    
    96   48  111 1    
    97   49   50 am   BACKBONE|DICT|INTERRES
    98   49  112 1    
    99   50   51 2    
   100   50   52 1    
   101   52   53 1    
   102   52   54 1    
   103   52  113 1    
   104   53  114 1    
   105   53  115 1    
   106   53  116 1    
   107   54   55 am   BACKBONE|DICT|INTERRES
   108   54  117 1    
   109   55   56 2    
   110   55   57 1    
   111   57   58 1    
   112   57   59 1    
   113   57  118 1    
   114   58  119 1    
   115   58  120 1    
   116   58  121 1    
   117   59   60 am   BACKBONE|DICT|INTERRES
   118   59  122 1    
   119   60   61 2    
   120   60   62 1    
   121   62   63 1    
   122   62   64 1    
   123   62  123 1    
   124   63  124 1    
   125   63  125 1    
   126   63  126 1    
   127   64   65 am   BACKBONE|DICT|INTERRES
   128   64  127 1    
   129   65   66 2    
@<TRIPOS>SUBSTRUCTURE
     1 UNK         1 GROUP             0       ****    0 ROOT    
