@<TRIPOS>MOLECULE
3R135
127   129    1
SMALL
USER_CHARGES


@<TRIPOS>ATOM
      1 CA        -83.5591   27.2507  -71.7626 C.3       0 UNK        -0.1998 
      2 C         -82.6259   27.4723  -72.9432 C.2       0 UNK         0.4909 
      3 O         -81.5458   26.8872  -72.9696 O.2       0 UNK        -0.5240 
      4 N         -83.0540   28.3041  -73.9047 N.am      1 UNK        -0.4739 
      5 CA        -82.4081   28.7626  -75.1510 C.3       1 UNK         0.0864 
      6 C6        -81.3525   29.8881  -74.9651 C.3       11 UNK        -0.0881 
      7 S7        -79.7926   29.4100  -74.1515 S.3       11 UNK        -0.2682 
      8 C8        -80.0507   30.1190  -72.4937 C.3       11 UNK         0.0289 
      9 C9        -78.9255   29.7168  -71.5570 C.ar      11 UNK        -0.0687 
     10 C10       -78.8914   28.4248  -71.0277 C.ar      11 UNK        -0.0823 
     11 C11       -77.8178   28.0120  -70.2335 C.ar      11 UNK        -0.0830 
     12 C12       -76.7995   28.9187  -69.9248 C.ar      11 UNK        -0.1021 
     13 C13       -76.8246   30.2142  -70.4517 C.ar      11 UNK        -0.0753 
     14 C14       -77.8942   30.6112  -71.2596 C.ar      11 UNK        -0.0933 
     15 C15       -75.6683   31.1696  -70.2024 C.3       11 UNK         0.0166 
     16 S16       -74.5219   31.1980  -71.6189 S.3       11 UNK        -0.2615 
     17 C17       -73.8099   29.5213  -71.5253 C.3       11 UNK        -0.0865 
     18 CA        -72.5490   29.3672  -72.4123 C.3       10 UNK         0.0862 
     19 C         -71.8055   28.0503  -72.0837 C.2       10 UNK         0.5551 
     20 N         -70.5679   28.1291  -71.6156 N.am      10 UNK        -0.7319 
     21 O         -72.3579   26.9611  -72.2172 O.2       10 UNK        -0.5018 
     22 N         -72.8893   29.3657  -73.8383 N.am      10 UNK        -0.4509 
     23 C         -72.2500   30.0516  -74.7904 C.2       10 UNK         0.4899 
     24 O         -71.3762   30.8933  -74.5731 O.2       10 UNK        -0.4839 
     25 CA        -72.6418   29.6853  -76.2344 C.3       9 UNK         0.0222 
     26 CB        -71.9646   30.5721  -77.3010 C.3       9 UNK        -0.1966 
     27 N         -72.4082   28.2590  -76.4949 N.am      9 UNK        -0.4218 
     28 C         -71.2387   27.5999  -76.4546 C.2       9 UNK         0.5020 
     29 O         -70.1443   28.1429  -76.2972 O.2       9 UNK        -0.5274 
     30 CA        -71.2817   26.0668  -76.5884 C.3       8 UNK         0.0270 
     31 CB        -71.0196   25.4075  -75.2246 C.3       8 UNK        -0.1976 
     32 N         -72.5453   25.5591  -77.1300 N.am      8 UNK        -0.4313 
     33 C         -72.8584   25.5515  -78.4329 C.2       8 UNK         0.5041 
     34 O         -72.1052   25.9547  -79.3203 O.2       8 UNK        -0.5577 
     35 CA        -74.2503   25.0168  -78.8121 C.3       7 UNK         0.0284 
     36 CB        -74.2732   23.4804  -78.7819 C.3       7 UNK        -0.1958 
     37 N         -75.3188   25.5452  -77.9604 N.am      7 UNK        -0.4454 
     38 C         -75.6823   26.8353  -77.9107 C.2       7 UNK         0.5089 
     39 O         -75.1656   27.7234  -78.5881 O.2       7 UNK        -0.5125 
     40 CA        -76.7950   27.2047  -76.9183 C.3       6 UNK         0.0408 
     41 CB        -78.1782   26.9683  -77.5379 C.3       6 UNK        -0.1791 
     42 N         -76.6786   26.4701  -75.6579 N.am      6 UNK        -0.4762 
     43 C         -75.7148   26.6993  -74.7546 C.2       6 UNK         0.5007 
     44 O         -74.8519   27.5683  -74.8802 O.2       6 UNK        -0.5032 
     45 CA        -75.6926   25.7950  -73.5093 C.3       5 UNK         0.0783 
     46 C46       -76.7520   26.2760  -72.4953 C.3       11 UNK        -0.0857 
     47 S47       -76.4484   25.6537  -70.8053 S.3       11 UNK        -0.2512 
     48 C48       -77.7031   26.5516  -69.8193 C.3       11 UNK         0.0225 
     49 N         -75.8502   24.3798  -73.8532 N.am      5 UNK        -0.4615 
     50 C         -75.0072   23.6890  -74.6328 C.2       4 UNK         0.5053 
     51 O         -73.9878   24.1613  -75.1325 O.2       4 UNK        -0.5105 
     52 CA        -75.3848   22.2351  -74.9516 C.3       4 UNK         0.0263 
     53 CB        -74.8722   21.2937  -73.8504 C.3       4 UNK        -0.1981 
     54 N         -76.8213   22.0248  -75.1486 N.am      4 UNK        -0.4224 
     55 C         -77.5888   22.6495  -76.0539 C.2       3 UNK         0.4895 
     56 O         -77.1703   23.5164  -76.8265 O.2       3 UNK        -0.5091 
     57 CA        -79.0629   22.2035  -76.1300 C.3       3 UNK         0.0250 
     58 CB        -79.5856   21.5390  -74.8340 C.3       3 UNK        -0.1996 
     59 N         -79.9685   23.2781  -76.5503 N.am      3 UNK        -0.4254 
     60 C         -80.2121   24.4340  -75.9155 C.2       2 UNK         0.5004 
     61 O         -79.6305   24.7988  -74.8904 O.2       2 UNK        -0.5226 
     62 CA        -81.3009   25.3160  -76.5489 C.3       2 UNK         0.0269 
     63 CB        -82.6206   24.5437  -76.7613 C.3       2 UNK        -0.1926 
     64 N         -81.5724   26.4894  -75.7198 N.am      2 UNK        -0.4687 
     65 C         -81.9836   27.6777  -76.1713 C.2       1 UNK         0.5165 
     66 O         -82.0886   27.9312  -77.3732 O.2       1 UNK        -0.5079 
     67 H67       -83.0658   27.5459  -70.8368 H         1 UNK         0.0900 
     68 H68       -84.4806   27.8255  -71.8536 H         1 UNK         0.0900 
     69 H69       -83.8228   26.1962  -71.6867 H         1 UNK         0.0900 
     70 H70       -83.9781   28.6939  -73.7799 H         1 UNK         0.2959 
     71 H71       -83.2385   29.2532  -75.6624 H         1 UNK         0.1079 
     72 H72       -81.0928   30.3093  -75.9383 H         1 UNK         0.0837 
     73 H73       -81.8020   30.7154  -74.4139 H         1 UNK         0.0837 
     74 H74       -81.0027   29.7765  -72.0873 H         1 UNK         0.0685 
     75 H75       -80.1178   31.2053  -72.5708 H         1 UNK         0.0685 
     76 H76       -79.6685   27.7214  -71.2950 H         1 UNK         0.1434 
     77 H77       -75.9568   28.5938  -69.3298 H         1 UNK         0.1329 
     78 H78       -77.9024   31.6048  -71.6868 H         1 UNK         0.1335 
     79 H79       -76.0544   32.1768  -70.0387 H         1 UNK         0.0680 
     80 H80       -75.1274   30.8977  -69.2946 H         1 UNK         0.0680 
     81 H81       -74.5712   28.7913  -71.8083 H         1 UNK         0.1032 
     82 H82       -73.5650   29.3197  -70.4805 H         1 UNK         0.1032 
     83 H83       -71.8816   30.2024  -72.1894 H         1 UNK         0.0461 
     84 H84       -70.1099   29.0199  -71.5001 H         1 UNK         0.3453 
     85 H85       -70.0776   27.2796  -71.3840 H         1 UNK         0.3453 
     86 H86       -73.5738   28.6700  -74.1283 H         1 UNK         0.2984 
     87 H87       -73.7190   29.8392  -76.3164 H         1 UNK         0.0554 
     88 H88       -72.2251   31.6209  -77.1540 H         1 UNK         0.0847 
     89 H89       -72.2845   30.2955  -78.3056 H         1 UNK         0.0847 
     90 H90       -70.8773   30.5019  -77.2639 H         1 UNK         0.0847 
     91 H91       -73.2474   27.7009  -76.5844 H         1 UNK         0.3141 
     92 H92       -70.4723   25.7769  -77.2619 H         1 UNK         0.0743 
     93 H93       -70.0683   25.7362  -74.8040 H         1 UNK         0.0784 
     94 H94       -71.7981   25.6584  -74.5034 H         1 UNK         0.0784 
     95 H95       -70.9806   24.3214  -75.3089 H         1 UNK         0.0784 
     96 H96       -73.1960   25.1521  -76.4581 H         1 UNK         0.3213 
     97 H97       -74.4591   25.3366  -79.8353 H         1 UNK         0.0855 
     98 H98       -74.0531   23.0932  -77.7876 H         1 UNK         0.0814 
     99 H99       -73.5289   23.0671  -79.4638 H         1 UNK         0.0814 
    100 H100      -75.2449   23.0906  -79.0859 H         1 UNK         0.0814 
    101 H101      -75.8385   24.8754  -77.3991 H         1 UNK         0.3105 
    102 H102      -76.7065   28.2708  -76.6976 H         1 UNK         0.0547 
    103 H103      -78.3349   25.9180  -77.7852 H         1 UNK         0.0837 
    104 H104      -78.2965   27.5415  -78.4583 H         1 UNK         0.0837 
    105 H105      -78.9692   27.2831  -76.8578 H         1 UNK         0.0837 
    106 H106      -77.3417   25.7226  -75.4933 H         1 UNK         0.3020 
    107 H107      -74.7034   25.9124  -73.0601 H         1 UNK         0.1245 
    108 H108      -77.7603   25.9995  -72.8115 H         1 UNK         0.0781 
    109 H109      -76.7314   27.3661  -72.4582 H         1 UNK         0.0781 
    110 H110      -77.4426   26.4875  -68.7620 H         1 UNK         0.0836 
    111 H111      -78.6641   26.0463  -69.9290 H         1 UNK         0.0836 
    112 H112      -76.6724   23.9175  -73.4945 H         1 UNK         0.3022 
    113 H113      -74.8884   21.9643  -75.8847 H         1 UNK         0.0747 
    114 H114      -75.0401   20.2483  -74.1105 H         1 UNK         0.0793 
    115 H115      -73.7988   21.4189  -73.6998 H         1 UNK         0.0793 
    116 H116      -75.3597   21.4856  -72.8936 H         1 UNK         0.0793 
    117 H117      -77.2566   21.3277  -74.5622 H         1 UNK         0.3047 
    118 H118      -79.1023   21.4542  -76.9219 H         1 UNK         0.0822 
    119 H119      -80.6436   21.2905  -74.9213 H         1 UNK         0.0807 
    120 H120      -79.4735   22.1921  -73.9673 H         1 UNK         0.0807 
    121 H121      -79.0644   20.6053  -74.6201 H         1 UNK         0.0807 
    122 H122      -80.4639   23.1018  -77.4128 H         1 UNK         0.2946 
    123 H123      -80.9193   25.6416  -77.5191 H         1 UNK         0.1144 
    124 H124      -83.3907   25.1843  -77.1915 H         1 UNK         0.0793 
    125 H125      -83.0062   24.1472  -75.8211 H         1 UNK         0.0793 
    126 H126      -82.4949   23.7041  -77.4453 H         1 UNK         0.0793 
    127 H127      -81.4122   26.3842  -74.7175 H         1 UNK         0.2896 
@<TRIPOS>BOND
     1    1    2 1    
     2    1   67 1    
     3    1   68 1    
     4    1   69 1    
     5    2    3 2    
     6    2    4 am   BACKBONE|DICT|INTERRES
     7    4    5 1    
     8    4   70 1    
     9    5    6 1    
    10    5   65 1    
    11    5   71 1    
    12    6    7 1    
    13    6   72 1    
    14    6   73 1    
    15    7    8 1    
    16    8    9 1    
    17    8   74 1    
    18    8   75 1    
    19    9   10 ar   
    20    9   14 ar   
    21   10   11 ar   
    22   10   76 1    
    23   11   12 ar   
    24   11   48 1    
    25   12   13 ar   
    26   12   77 1    
    27   13   14 ar   
    28   13   15 1    
    29   14   78 1    
    30   15   16 1    
    31   15   79 1    
    32   15   80 1    
    33   16   17 1    
    34   17   18 1    
    35   17   81 1    
    36   17   82 1    
    37   18   19 1    
    38   18   22 1    
    39   18   83 1    
    40   19   20 am   BACKBONE|DICT|INTERRES
    41   19   21 2    
    42   20   84 1    
    43   20   85 1    
    44   22   23 am   BACKBONE|DICT|INTERRES
    45   22   86 1    
    46   23   24 2    
    47   23   25 1    
    48   25   26 1    
    49   25   27 1    
    50   25   87 1    
    51   26   88 1    
    52   26   89 1    
    53   26   90 1    
    54   27   28 am   BACKBONE|DICT|INTERRES
    55   27   91 1    
    56   28   29 2    
    57   28   30 1    
    58   30   31 1    
    59   30   32 1    
    60   30   92 1    
    61   31   93 1    
    62   31   94 1    
    63   31   95 1    
    64   32   33 am   BACKBONE|DICT|INTERRES
    65   32   96 1    
    66   33   34 2    
    67   33   35 1    
    68   35   36 1    
    69   35   37 1    
    70   35   97 1    
    71   36   98 1    
    72   36   99 1    
    73   36  100 1    
    74   37   38 am   BACKBONE|DICT|INTERRES
    75   37  101 1    
    76   38   39 2    
    77   38   40 1    
    78   40   41 1    
    79   40   42 1    
    80   40  102 1    
    81   41  103 1    
    82   41  104 1    
    83   41  105 1    
    84   42   43 am   BACKBONE|DICT|INTERRES
    85   42  106 1    
    86   43   44 2    
    87   43   45 1    
    88   45   46 1    
    89   45   49 1    
    90   45  107 1    
    91   46   47 1    
    92   46  108 1    
    93   46  109 1    
    94   47   48 1    
    95   48  110 1    
    96   48  111 1    
    97   49   50 am   BACKBONE|DICT|INTERRES
    98   49  112 1    
    99   50   51 2    
   100   50   52 1    
   101   52   53 1    
   102   52   54 1    
   103   52  113 1    
   104   53  114 1    
   105   53  115 1    
   106   53  116 1    
   107   54   55 am   BACKBONE|DICT|INTERRES
   108   54  117 1    
   109   55   56 2    
   110   55   57 1    
   111   57   58 1    
   112   57   59 1    
   113   57  118 1    
   114   58  119 1    
   115   58  120 1    
   116   58  121 1    
   117   59   60 am   BACKBONE|DICT|INTERRES
   118   59  122 1    
   119   60   61 2    
   120   60   62 1    
   121   62   63 1    
   122   62   64 1    
   123   62  123 1    
   124   63  124 1    
   125   63  125 1    
   126   63  126 1    
   127   64   65 am   BACKBONE|DICT|INTERRES
   128   64  127 1    
   129   65   66 2    
@<TRIPOS>SUBSTRUCTURE
     1 UNK         1 GROUP             0       ****    0 ROOT    
