@<TRIPOS>MOLECULE
3R135
127   129    1
SMALL
USER_CHARGES


@<TRIPOS>ATOM
      1 CA        -84.8743   29.6103  -72.0423 C.3       0 UNK        -0.1998 
      2 C         -83.5198   29.9080  -72.6672 C.2       0 UNK         0.4909 
      3 O         -83.3069   31.0105  -73.1722 O.2       0 UNK        -0.5240 
      4 N         -82.6027   28.9319  -72.6393 N.am      1 UNK        -0.4739 
      5 CA        -81.2373   29.0469  -73.1767 C.3       1 UNK         0.0864 
      6 C6        -80.2808   27.9788  -72.5832 C.3       11 UNK        -0.0881 
      7 S7        -80.3210   27.9288  -70.7588 S.3       11 UNK        -0.2682 
      8 C8        -78.9469   29.0482  -70.3231 C.3       11 UNK         0.0289 
      9 C9        -77.5464   28.4454  -70.4424 C.ar      11 UNK        -0.0687 
     10 C10       -77.3048   27.0732  -70.2972 C.ar      11 UNK        -0.0823 
     11 C11       -76.0035   26.5640  -70.3557 C.ar      11 UNK        -0.0830 
     12 C12       -74.9319   27.4371  -70.5673 C.ar      11 UNK        -0.1021 
     13 C13       -75.1541   28.8128  -70.6893 C.ar      11 UNK        -0.0753 
     14 C14       -76.4610   29.3060  -70.6284 C.ar      11 UNK        -0.0933 
     15 C15       -73.9790   29.7727  -70.8184 C.3       11 UNK         0.0166 
     16 S16       -73.5092   30.0773  -72.5487 S.3       11 UNK        -0.2615 
     17 C17       -74.8639   31.1504  -73.1410 C.3       11 UNK        -0.0865 
     18 CA        -75.8193   30.4296  -74.1288 C.3       10 UNK         0.0862 
     19 C         -77.0018   31.3672  -74.5118 C.2       10 UNK         0.5551 
     20 N         -77.1046   31.8380  -75.7485 N.am      10 UNK        -0.7319 
     21 O         -77.8294   31.6837  -73.6607 O.2       10 UNK        -0.5018 
     22 N         -75.0625   29.8422  -75.2470 N.am      10 UNK        -0.4509 
     23 C         -75.5350   28.9990  -76.1725 C.2       10 UNK         0.4899 
     24 O         -76.7166   28.6806  -76.2889 O.2       10 UNK        -0.4839 
     25 CA        -74.4907   28.3810  -77.1200 C.3       9 UNK         0.0222 
     26 CB        -74.2312   29.3066  -78.3193 C.3       9 UNK        -0.1966 
     27 N         -73.2176   28.0531  -76.4646 N.am      9 UNK        -0.4218 
     28 C         -73.0786   27.1847  -75.4528 C.2       9 UNK         0.5020 
     29 O         -74.0107   26.5451  -74.9658 O.2       9 UNK        -0.5274 
     30 CA        -71.6530   26.9636  -74.9284 C.3       8 UNK         0.0270 
     31 CB        -71.6127   26.7597  -73.4034 C.3       8 UNK        -0.1976 
     32 N         -71.0762   25.7913  -75.5820 N.am      8 UNK        -0.4313 
     33 C         -70.4534   25.8208  -76.7682 C.2       8 UNK         0.5041 
     34 O         -70.2792   26.8548  -77.4156 O.2       8 UNK        -0.5577 
     35 CA        -69.9151   24.4920  -77.3319 C.3       7 UNK         0.0284 
     36 CB        -68.4066   24.3682  -77.0613 C.3       7 UNK        -0.1958 
     37 N         -70.5952   23.3091  -76.7997 N.am      7 UNK        -0.4454 
     38 C         -71.8354   22.9323  -77.1358 C.2       7 UNK         0.5089 
     39 O         -72.5279   23.5244  -77.9641 O.2       7 UNK        -0.5125 
     40 CA        -72.4234   21.7005  -76.4201 C.3       6 UNK         0.0408 
     41 CB        -71.3827   20.8315  -75.6764 C.3       6 UNK        -0.1791 
     42 N         -73.5164   22.0953  -75.5261 N.am      6 UNK        -0.4762 
     43 C         -73.4390   22.9373  -74.4835 C.2       6 UNK         0.5007 
     44 O         -72.3871   23.4490  -74.0927 O.2       6 UNK        -0.5032 
     45 CA        -74.7795   23.3116  -73.8284 C.3       5 UNK         0.0783 
     46 C46       -74.6145   23.9653  -72.4343 C.3       11 UNK        -0.0857 
     47 S47       -76.2116   24.0700  -71.5649 S.3       11 UNK        -0.2512 
     48 C48       -75.7640   25.0790  -70.1193 C.3       11 UNK         0.0225 
     49 N         -75.4570   24.2099  -74.7574 N.am      5 UNK        -0.4615 
     50 C         -76.3813   23.8544  -75.6493 C.2       4 UNK         0.5053 
     51 O         -76.8420   22.7144  -75.7479 O.2       4 UNK        -0.5105 
     52 CA        -76.7997   24.9411  -76.6495 C.3       4 UNK         0.0263 
     53 CB        -75.9446   24.8448  -77.9237 C.3       4 UNK        -0.1981 
     54 N         -78.2114   24.8191  -77.0091 N.am      4 UNK        -0.4224 
     55 C         -79.2217   25.1931  -76.2161 C.2       3 UNK         0.4895 
     56 O         -79.0785   25.7122  -75.1066 O.2       3 UNK        -0.5091 
     57 CA        -80.6378   24.9188  -76.7399 C.3       3 UNK         0.0250 
     58 CB        -81.2467   23.6938  -76.0377 C.3       3 UNK        -0.1996 
     59 N         -81.4802   26.0859  -76.4911 N.am      3 UNK        -0.4254 
     60 C         -81.5908   27.1339  -77.3181 C.2       2 UNK         0.5004 
     61 O         -81.0918   27.1781  -78.4433 O.2       2 UNK        -0.5226 
     62 CA        -82.3927   28.3398  -76.8004 C.3       2 UNK         0.0269 
     63 CB        -83.8757   28.2103  -77.1843 C.3       2 UNK        -0.1926 
     64 N         -82.2804   28.5064  -75.3485 N.am      2 UNK        -0.4687 
     65 C         -81.2023   29.0026  -74.7209 C.2       1 UNK         0.5165 
     66 O         -80.2089   29.4200  -75.3147 O.2       1 UNK        -0.5079 
     67 H67       -85.6622   29.7107  -72.7883 H         1 UNK         0.0900 
     68 H68       -85.0773   30.3137  -71.2352 H         1 UNK         0.0900 
     69 H69       -84.9216   28.6016  -71.6321 H         1 UNK         0.0900 
     70 H70       -82.8181   28.0562  -72.1834 H         1 UNK         0.2959 
     71 H71       -80.8508   30.0283  -72.8913 H         1 UNK         0.1079 
     72 H72       -80.5461   26.9840  -72.9469 H         1 UNK         0.0837 
     73 H73       -79.2545   28.1524  -72.9149 H         1 UNK         0.0837 
     74 H74       -79.0233   29.9470  -70.9375 H         1 UNK         0.0685 
     75 H75       -79.0870   29.3696  -69.2904 H         1 UNK         0.0685 
     76 H76       -78.1247   26.3923  -70.1168 H         1 UNK         0.1434 
     77 H77       -73.9217   27.0522  -70.6026 H         1 UNK         0.1329 
     78 H78       -76.6351   30.3703  -70.7025 H         1 UNK         0.1335 
     79 H79       -73.1143   29.3625  -70.2945 H         1 UNK         0.0680 
     80 H80       -74.2033   30.7204  -70.3262 H         1 UNK         0.0680 
     81 H81       -74.4128   32.0185  -73.6254 H         1 UNK         0.1032 
     82 H82       -75.4131   31.5481  -72.2868 H         1 UNK         0.1032 
     83 H83       -76.2711   29.5895  -73.5975 H         1 UNK         0.0461 
     84 H84       -77.8769   32.4398  -75.9854 H         1 UNK         0.3453 
     85 H85       -76.4372   31.5669  -76.4519 H         1 UNK         0.3453 
     86 H86       -74.0699   30.0211  -75.2338 H         1 UNK         0.2984 
     87 H87       -74.9083   27.4489  -77.5012 H         1 UNK         0.0554 
     88 H88       -75.1623   29.5459  -78.8352 H         1 UNK         0.0847 
     89 H89       -73.5722   28.8357  -79.0490 H         1 UNK         0.0847 
     90 H90       -73.7761   30.2497  -78.0141 H         1 UNK         0.0847 
     91 H91       -72.3844   28.4851  -76.8405 H         1 UNK         0.3141 
     92 H92       -71.0543   27.8487  -75.1547 H         1 UNK         0.0743 
     93 H93       -72.0747   27.5970  -72.8826 H         1 UNK         0.0784 
     94 H94       -72.1410   25.8590  -73.0961 H         1 UNK         0.0784 
     95 H95       -70.5870   26.6808  -73.0435 H         1 UNK         0.0784 
     96 H96       -71.2604   24.8967  -75.1392 H         1 UNK         0.3213 
     97 H97       -70.0654   24.5147  -78.4137 H         1 UNK         0.0855 
     98 H98       -67.8655   25.2209  -77.4742 H         1 UNK         0.0814 
     99 H99       -67.9920   23.4711  -77.5217 H         1 UNK         0.0814 
    100 H100      -68.1886   24.3312  -75.9932 H         1 UNK         0.0814 
    101 H101      -70.1068   22.7773  -76.0937 H         1 UNK         0.3105 
    102 H102      -72.8692   21.0801  -77.1990 H         1 UNK         0.0547 
    103 H103      -70.5912   20.5028  -76.3513 H         1 UNK         0.0837 
    104 H104      -70.9130   21.3548  -74.8433 H         1 UNK         0.0837 
    105 H105      -71.8472   19.9317  -75.2731 H         1 UNK         0.0837 
    106 H106      -74.4377   21.7844  -75.8068 H         1 UNK         0.3020 
    107 H107      -75.3488   22.3873  -73.7038 H         1 UNK         0.1245 
    108 H108      -74.1912   24.9672  -72.5202 H         1 UNK         0.0781 
    109 H109      -73.9306   23.3856  -71.8115 H         1 UNK         0.0781 
    110 H110      -74.7268   24.8901  -69.8378 H         1 UNK         0.0836 
    111 H111      -76.3668   24.7532  -69.2702 H         1 UNK         0.0836 
    112 H112      -75.0593   25.1499  -74.8035 H         1 UNK         0.3022 
    113 H113      -76.6396   25.9211  -76.1940 H         1 UNK         0.0747 
    114 H114      -76.2120   25.6194  -78.6426 H         1 UNK         0.0793 
    115 H115      -74.8862   24.9705  -77.6901 H         1 UNK         0.0793 
    116 H116      -76.0544   23.8766  -78.4139 H         1 UNK         0.0793 
    117 H117      -78.4160   24.3552  -77.8821 H         1 UNK         0.3047 
    118 H118      -80.5989   24.7177  -77.8130 H         1 UNK         0.0822 
    119 H119      -82.2514   23.4844  -76.4052 H         1 UNK         0.0807 
    120 H120      -81.3062   23.8340  -74.9574 H         1 UNK         0.0807 
    121 H121      -80.6430   22.8029  -76.2169 H         1 UNK         0.0807 
    122 H122      -81.8790   26.1636  -75.5676 H         1 UNK         0.2946 
    123 H123      -81.9901   29.2328  -77.2847 H         1 UNK         0.1144 
    124 H124      -84.4419   29.0914  -76.8813 H         1 UNK         0.0793 
    125 H125      -84.3398   27.3372  -76.7239 H         1 UNK         0.0793 
    126 H126      -83.9906   28.1089  -78.2645 H         1 UNK         0.0793 
    127 H127      -83.0657   28.2131  -74.7855 H         1 UNK         0.2896 
@<TRIPOS>BOND
     1    1    2 1    
     2    1   67 1    
     3    1   68 1    
     4    1   69 1    
     5    2    3 2    
     6    2    4 am   BACKBONE|DICT|INTERRES
     7    4    5 1    
     8    4   70 1    
     9    5    6 1    
    10    5   65 1    
    11    5   71 1    
    12    6    7 1    
    13    6   72 1    
    14    6   73 1    
    15    7    8 1    
    16    8    9 1    
    17    8   74 1    
    18    8   75 1    
    19    9   10 ar   
    20    9   14 ar   
    21   10   11 ar   
    22   10   76 1    
    23   11   12 ar   
    24   11   48 1    
    25   12   13 ar   
    26   12   77 1    
    27   13   14 ar   
    28   13   15 1    
    29   14   78 1    
    30   15   16 1    
    31   15   79 1    
    32   15   80 1    
    33   16   17 1    
    34   17   18 1    
    35   17   81 1    
    36   17   82 1    
    37   18   19 1    
    38   18   22 1    
    39   18   83 1    
    40   19   20 am   BACKBONE|DICT|INTERRES
    41   19   21 2    
    42   20   84 1    
    43   20   85 1    
    44   22   23 am   BACKBONE|DICT|INTERRES
    45   22   86 1    
    46   23   24 2    
    47   23   25 1    
    48   25   26 1    
    49   25   27 1    
    50   25   87 1    
    51   26   88 1    
    52   26   89 1    
    53   26   90 1    
    54   27   28 am   BACKBONE|DICT|INTERRES
    55   27   91 1    
    56   28   29 2    
    57   28   30 1    
    58   30   31 1    
    59   30   32 1    
    60   30   92 1    
    61   31   93 1    
    62   31   94 1    
    63   31   95 1    
    64   32   33 am   BACKBONE|DICT|INTERRES
    65   32   96 1    
    66   33   34 2    
    67   33   35 1    
    68   35   36 1    
    69   35   37 1    
    70   35   97 1    
    71   36   98 1    
    72   36   99 1    
    73   36  100 1    
    74   37   38 am   BACKBONE|DICT|INTERRES
    75   37  101 1    
    76   38   39 2    
    77   38   40 1    
    78   40   41 1    
    79   40   42 1    
    80   40  102 1    
    81   41  103 1    
    82   41  104 1    
    83   41  105 1    
    84   42   43 am   BACKBONE|DICT|INTERRES
    85   42  106 1    
    86   43   44 2    
    87   43   45 1    
    88   45   46 1    
    89   45   49 1    
    90   45  107 1    
    91   46   47 1    
    92   46  108 1    
    93   46  109 1    
    94   47   48 1    
    95   48  110 1    
    96   48  111 1    
    97   49   50 am   BACKBONE|DICT|INTERRES
    98   49  112 1    
    99   50   51 2    
   100   50   52 1    
   101   52   53 1    
   102   52   54 1    
   103   52  113 1    
   104   53  114 1    
   105   53  115 1    
   106   53  116 1    
   107   54   55 am   BACKBONE|DICT|INTERRES
   108   54  117 1    
   109   55   56 2    
   110   55   57 1    
   111   57   58 1    
   112   57   59 1    
   113   57  118 1    
   114   58  119 1    
   115   58  120 1    
   116   58  121 1    
   117   59   60 am   BACKBONE|DICT|INTERRES
   118   59  122 1    
   119   60   61 2    
   120   60   62 1    
   121   62   63 1    
   122   62   64 1    
   123   62  123 1    
   124   63  124 1    
   125   63  125 1    
   126   63  126 1    
   127   64   65 am   BACKBONE|DICT|INTERRES
   128   64  127 1    
   129   65   66 2    
@<TRIPOS>SUBSTRUCTURE
     1 UNK         1 GROUP             0       ****    0 ROOT    
