@<TRIPOS>MOLECULE
3R135
127   129    1
SMALL
USER_CHARGES


@<TRIPOS>ATOM
      1 CA        -83.4712   25.7156  -75.5949 C.3       0 UNK        -0.1998 
      2 C         -82.1263   26.3550  -75.9022 C.2       0 UNK         0.4909 
      3 O         -81.7501   26.4470  -77.0708 O.2       0 UNK        -0.5240 
      4 N         -81.3995   26.7896  -74.8628 N.am      1 UNK        -0.4739 
      5 CA        -80.0887   27.4490  -74.9274 C.3       1 UNK         0.0864 
      6 C6        -79.5587   27.8012  -73.5180 C.3       11 UNK        -0.0881 
      7 S7        -80.6852   28.8396  -72.5274 S.3       11 UNK        -0.2682 
      8 C8        -79.5313   30.0512  -71.7837 C.3       11 UNK         0.0289 
      9 C9        -78.2788   29.4430  -71.1475 C.ar      11 UNK        -0.0687 
     10 C10       -78.3126   28.2090  -70.4869 C.ar      11 UNK        -0.0823 
     11 C11       -77.1462   27.6507  -69.9575 C.ar      11 UNK        -0.0830 
     12 C12       -75.9398   28.3491  -70.0647 C.ar      11 UNK        -0.1021 
     13 C13       -75.8883   29.5947  -70.6990 C.ar      11 UNK        -0.0753 
     14 C14       -77.0662   30.1356  -71.2300 C.ar      11 UNK        -0.0933 
     15 C15       -74.5602   30.3477  -70.7710 C.3       11 UNK         0.0166 
     16 S16       -74.2810   31.1925  -72.3639 S.3       11 UNK        -0.2615 
     17 C17       -72.5379   31.7196  -72.2002 C.3       11 UNK        -0.0865 
     18 CA        -71.5526   30.9270  -73.1064 C.3       10 UNK         0.0862 
     19 C         -71.3540   29.4527  -72.6642 C.2       10 UNK         0.5551 
     20 N         -70.8155   29.2293  -71.4733 N.am      10 UNK        -0.7319 
     21 O         -71.6811   28.5115  -73.3856 O.2       10 UNK        -0.5018 
     22 N         -71.9181   30.9995  -74.5235 N.am      10 UNK        -0.4509 
     23 C         -71.6736   32.0124  -75.3591 C.2       10 UNK         0.4899 
     24 O         -71.1043   33.0510  -75.0199 O.2       10 UNK        -0.4839 
     25 CA        -72.1694   31.8514  -76.8127 C.3       9 UNK         0.0222 
     26 CB        -71.2584   32.5654  -77.8342 C.3       9 UNK        -0.1966 
     27 N         -72.4222   30.4560  -77.2029 N.am      9 UNK        -0.4218 
     28 C         -71.5338   29.4600  -77.3329 C.2       9 UNK         0.5020 
     29 O         -70.3183   29.5924  -77.1787 O.2       9 UNK        -0.5274 
     30 CA        -72.1274   28.0712  -77.6426 C.3       8 UNK         0.0270 
     31 CB        -71.0522   27.0395  -78.0315 C.3       8 UNK        -0.1976 
     32 N         -72.8908   27.5502  -76.5059 N.am      8 UNK        -0.4313 
     33 C         -74.0924   27.9782  -76.1050 C.2       8 UNK         0.5041 
     34 O         -74.7317   28.8488  -76.7005 O.2       8 UNK        -0.5577 
     35 CA        -74.6703   27.3214  -74.8381 C.3       7 UNK         0.0284 
     36 CB        -75.7978   28.1647  -74.2208 C.3       7 UNK        -0.1958 
     37 N         -75.1878   25.9808  -75.1004 N.am      7 UNK        -0.4454 
     38 C         -74.4632   24.8875  -75.3769 C.2       7 UNK         0.5089 
     39 O         -73.2327   24.8733  -75.4449 O.2       7 UNK        -0.5125 
     40 CA        -75.2775   23.5979  -75.5907 C.3       6 UNK         0.0408 
     41 CB        -74.4135   22.3195  -75.6313 C.3       6 UNK        -0.1791 
     42 N         -76.3702   23.5001  -74.6144 N.am      6 UNK        -0.4762 
     43 C         -76.2566   23.3491  -73.2835 C.2       6 UNK         0.5007 
     44 O         -75.1994   23.0804  -72.7129 O.2       6 UNK        -0.5032 
     45 CA        -77.5392   23.5548  -72.4465 C.3       5 UNK         0.0783 
     46 C46       -77.5330   24.9274  -71.7216 C.3       11 UNK        -0.0857 
     47 S47       -76.4347   24.9788  -70.2652 S.3       11 UNK        -0.2512 
     48 C48       -77.1926   26.2971  -69.2609 C.3       11 UNK         0.0225 
     49 N         -78.7447   23.4233  -73.2717 N.am      5 UNK        -0.4615 
     50 C         -79.3283   22.2646  -73.5962 C.2       4 UNK         0.5053 
     51 O         -78.9178   21.1646  -73.2269 O.2       4 UNK        -0.5105 
     52 CA        -80.5829   22.3498  -74.4731 C.3       4 UNK         0.0263 
     53 CB        -81.7121   23.1076  -73.7523 C.3       4 UNK        -0.1981 
     54 N         -80.3070   22.9817  -75.7703 N.am      4 UNK        -0.4224 
     55 C         -80.5871   22.4142  -76.9550 C.2       3 UNK         0.4895 
     56 O         -81.0349   21.2722  -77.0698 O.2       3 UNK        -0.5091 
     57 CA        -80.3740   23.2371  -78.2411 C.3       3 UNK         0.0250 
     58 CB        -81.7205   23.4971  -78.9394 C.3       3 UNK        -0.1996 
     59 N         -79.7111   24.5227  -78.0147 N.am      3 UNK        -0.4254 
     60 C         -78.3900   24.7258  -78.1174 C.2       2 UNK         0.5004 
     61 O         -77.5876   23.8478  -78.4320 O.2       2 UNK        -0.5226 
     62 CA        -77.8599   26.1384  -77.7972 C.3       2 UNK         0.0269 
     63 CB        -77.6116   26.9297  -79.0905 C.3       2 UNK        -0.1926 
     64 N         -78.7310   26.9209  -76.9129 N.am      2 UNK        -0.4687 
     65 C         -79.0580   26.5694  -75.6634 C.2       1 UNK         0.5165 
     66 O         -78.6134   25.5608  -75.1080 O.2       1 UNK        -0.5079 
     67 H67       -83.6572   25.6497  -74.5232 H         1 UNK         0.0900 
     68 H68       -83.5109   24.7090  -76.0098 H         1 UNK         0.0900 
     69 H69       -84.2736   26.3001  -76.0440 H         1 UNK         0.0900 
     70 H70       -81.7791   26.7039  -73.9307 H         1 UNK         0.2959 
     71 H71       -80.2158   28.3786  -75.4860 H         1 UNK         0.1079 
     72 H72       -79.3676   26.8956  -72.9413 H         1 UNK         0.0837 
     73 H73       -78.6019   28.3155  -73.6060 H         1 UNK         0.0837 
     74 H74       -79.2463   30.7604  -72.5626 H         1 UNK         0.0685 
     75 H75       -80.0662   30.6240  -71.0254 H         1 UNK         0.0685 
     76 H76       -79.2466   27.6717  -70.3996 H         1 UNK         0.1434 
     77 H77       -75.0391   27.9177  -69.6492 H         1 UNK         0.1329 
     78 H78       -77.0376   31.0994  -71.7192 H         1 UNK         0.1335 
     79 H79       -74.5286   31.0835  -69.9666 H         1 UNK         0.0680 
     80 H80       -73.7328   29.6575  -70.5985 H         1 UNK         0.0680 
     81 H81       -72.2296   31.6714  -71.1547 H         1 UNK         0.1032 
     82 H82       -72.4897   32.7779  -72.4605 H         1 UNK         0.1032 
     83 H83       -70.5672   31.3874  -73.0106 H         1 UNK         0.0461 
     84 H84       -70.6784   28.2770  -71.1734 H         1 UNK         0.3453 
     85 H85       -70.5236   29.9875  -70.8771 H         1 UNK         0.3453 
     86 H86       -72.3486   30.1584  -74.8812 H         1 UNK         0.2984 
     87 H87       -73.1421   32.3441  -76.8463 H         1 UNK         0.0554 
     88 H88       -71.6316   32.4466  -78.8513 H         1 UNK         0.0847 
     89 H89       -70.2372   32.1846  -77.8039 H         1 UNK         0.0847 
     90 H90       -71.2088   33.6362  -77.6330 H         1 UNK         0.0847 
     91 H91       -73.4024   30.1869  -77.2658 H         1 UNK         0.3141 
     92 H92       -72.8029   28.1842  -78.4934 H         1 UNK         0.0743 
     93 H93       -70.3537   26.8551  -77.2141 H         1 UNK         0.0784 
     94 H94       -71.5010   26.0854  -78.3093 H         1 UNK         0.0784 
     95 H95       -70.4707   27.3851  -78.8873 H         1 UNK         0.0784 
     96 H96       -72.4719   26.7881  -75.9834 H         1 UNK         0.3213 
     97 H97       -73.8691   27.2416  -74.1011 H         1 UNK         0.0855 
     98 H98       -75.4559   29.1784  -74.0179 H         1 UNK         0.0814 
     99 H99       -76.1417   27.7468  -73.2746 H         1 UNK         0.0814 
    100 H100      -76.6500   28.2471  -74.8945 H         1 UNK         0.0814 
    101 H101      -76.1913   25.8749  -75.0528 H         1 UNK         0.3105 
    102 H102      -75.7484   23.6964  -76.5679 H         1 UNK         0.0547 
    103 H103      -73.7161   22.3524  -76.4690 H         1 UNK         0.0837 
    104 H104      -73.8190   22.1951  -74.7262 H         1 UNK         0.0837 
    105 H105      -75.0284   21.4285  -75.7563 H         1 UNK         0.0837 
    106 H106      -77.2904   23.7321  -74.9650 H         1 UNK         0.3020 
    107 H107      -77.5572   22.7666  -71.6898 H         1 UNK         0.1245 
    108 H108      -78.5407   25.1559  -71.3709 H         1 UNK         0.0781 
    109 H109      -77.2603   25.7354  -72.4027 H         1 UNK         0.0781 
    110 H110      -76.6612   26.3644  -68.3105 H         1 UNK         0.0836 
    111 H111      -78.2185   26.0188  -69.0142 H         1 UNK         0.0836 
    112 H112      -79.0912   24.2845  -73.6775 H         1 UNK         0.3022 
    113 H113      -80.9251   21.3223  -74.6141 H         1 UNK         0.0747 
    114 H114      -82.6425   23.0523  -74.3169 H         1 UNK         0.0793 
    115 H115      -81.9079   22.6750  -72.7701 H         1 UNK         0.0793 
    116 H116      -81.4712   24.1598  -73.6022 H         1 UNK         0.0793 
    117 H117      -79.8844   23.9009  -75.7587 H         1 UNK         0.3047 
    118 H118      -79.7660   22.6261  -78.9119 H         1 UNK         0.0822 
    119 H119      -81.5838   24.0438  -79.8725 H         1 UNK         0.0807 
    120 H120      -82.3988   24.0738  -78.3102 H         1 UNK         0.0807 
    121 H121      -82.2229   22.5607  -79.1861 H         1 UNK         0.0807 
    122 H122      -80.3114   25.3024  -77.7565 H         1 UNK         0.2946 
    123 H123      -76.9000   26.0118  -77.2953 H         1 UNK         0.1144 
    124 H124      -76.9504   26.3817  -79.7635 H         1 UNK         0.0793 
    125 H125      -77.1345   27.8879  -78.8821 H         1 UNK         0.0793 
    126 H126      -78.5395   27.1233  -79.6301 H         1 UNK         0.0793 
    127 H127      -79.1719   27.7332  -77.3211 H         1 UNK         0.2896 
@<TRIPOS>BOND
     1    1    2 1    
     2    1   67 1    
     3    1   68 1    
     4    1   69 1    
     5    2    3 2    
     6    2    4 am   BACKBONE|DICT|INTERRES
     7    4    5 1    
     8    4   70 1    
     9    5    6 1    
    10    5   65 1    
    11    5   71 1    
    12    6    7 1    
    13    6   72 1    
    14    6   73 1    
    15    7    8 1    
    16    8    9 1    
    17    8   74 1    
    18    8   75 1    
    19    9   10 ar   
    20    9   14 ar   
    21   10   11 ar   
    22   10   76 1    
    23   11   12 ar   
    24   11   48 1    
    25   12   13 ar   
    26   12   77 1    
    27   13   14 ar   
    28   13   15 1    
    29   14   78 1    
    30   15   16 1    
    31   15   79 1    
    32   15   80 1    
    33   16   17 1    
    34   17   18 1    
    35   17   81 1    
    36   17   82 1    
    37   18   19 1    
    38   18   22 1    
    39   18   83 1    
    40   19   20 am   BACKBONE|DICT|INTERRES
    41   19   21 2    
    42   20   84 1    
    43   20   85 1    
    44   22   23 am   BACKBONE|DICT|INTERRES
    45   22   86 1    
    46   23   24 2    
    47   23   25 1    
    48   25   26 1    
    49   25   27 1    
    50   25   87 1    
    51   26   88 1    
    52   26   89 1    
    53   26   90 1    
    54   27   28 am   BACKBONE|DICT|INTERRES
    55   27   91 1    
    56   28   29 2    
    57   28   30 1    
    58   30   31 1    
    59   30   32 1    
    60   30   92 1    
    61   31   93 1    
    62   31   94 1    
    63   31   95 1    
    64   32   33 am   BACKBONE|DICT|INTERRES
    65   32   96 1    
    66   33   34 2    
    67   33   35 1    
    68   35   36 1    
    69   35   37 1    
    70   35   97 1    
    71   36   98 1    
    72   36   99 1    
    73   36  100 1    
    74   37   38 am   BACKBONE|DICT|INTERRES
    75   37  101 1    
    76   38   39 2    
    77   38   40 1    
    78   40   41 1    
    79   40   42 1    
    80   40  102 1    
    81   41  103 1    
    82   41  104 1    
    83   41  105 1    
    84   42   43 am   BACKBONE|DICT|INTERRES
    85   42  106 1    
    86   43   44 2    
    87   43   45 1    
    88   45   46 1    
    89   45   49 1    
    90   45  107 1    
    91   46   47 1    
    92   46  108 1    
    93   46  109 1    
    94   47   48 1    
    95   48  110 1    
    96   48  111 1    
    97   49   50 am   BACKBONE|DICT|INTERRES
    98   49  112 1    
    99   50   51 2    
   100   50   52 1    
   101   52   53 1    
   102   52   54 1    
   103   52  113 1    
   104   53  114 1    
   105   53  115 1    
   106   53  116 1    
   107   54   55 am   BACKBONE|DICT|INTERRES
   108   54  117 1    
   109   55   56 2    
   110   55   57 1    
   111   57   58 1    
   112   57   59 1    
   113   57  118 1    
   114   58  119 1    
   115   58  120 1    
   116   58  121 1    
   117   59   60 am   BACKBONE|DICT|INTERRES
   118   59  122 1    
   119   60   61 2    
   120   60   62 1    
   121   62   63 1    
   122   62   64 1    
   123   62  123 1    
   124   63  124 1    
   125   63  125 1    
   126   63  126 1    
   127   64   65 am   BACKBONE|DICT|INTERRES
   128   64  127 1    
   129   65   66 2    
@<TRIPOS>SUBSTRUCTURE
     1 UNK         1 GROUP             0       ****    0 ROOT    
