@<TRIPOS>MOLECULE
3R135
127   129    1
SMALL
USER_CHARGES


@<TRIPOS>ATOM
      1 CA        -84.4234   25.1419  -68.7726 C.3       0 UNK        -0.1998 
      2 C         -84.2385   25.9850  -70.0252 C.2       0 UNK         0.4909 
      3 O         -85.1917   26.1759  -70.7808 O.2       0 UNK        -0.5240 
      4 N         -83.0199   26.4947  -70.2461 N.am      1 UNK        -0.4739 
      5 CA        -82.6303   27.2912  -71.4171 C.3       1 UNK         0.0864 
      6 C6        -81.2767   28.0184  -71.2017 C.3       11 UNK        -0.0881 
      7 S7        -79.9428   26.9821  -70.4865 S.3       11 UNK        -0.2682 
      8 C8        -78.8628   26.6299  -71.9105 C.3       11 UNK         0.0289 
      9 C9        -78.2084   27.8860  -72.4646 C.ar      11 UNK        -0.0687 
     10 C10       -78.7191   28.4865  -73.6175 C.ar      11 UNK        -0.0823 
     11 C11       -78.1325   29.6438  -74.1359 C.ar      11 UNK        -0.0830 
     12 C12       -77.0198   30.1963  -73.4965 C.ar      11 UNK        -0.1021 
     13 C13       -76.4976   29.6036  -72.3430 C.ar      11 UNK        -0.0753 
     14 C14       -77.0945   28.4466  -71.8313 C.ar      11 UNK        -0.0933 
     15 C15       -75.3011   30.2281  -71.6441 C.3       11 UNK         0.0166 
     16 S16       -73.7523   29.4095  -72.1275 S.3       11 UNK        -0.2615 
     17 C17       -72.5206   30.6036  -71.5016 C.3       11 UNK        -0.0865 
     18 CA        -71.8050   31.3647  -72.6573 C.3       10 UNK         0.0862 
     19 C         -70.9654   32.5806  -72.1545 C.2       10 UNK         0.5551 
     20 N         -69.8760   32.9478  -72.8186 N.am      10 UNK        -0.7319 
     21 O         -71.3209   33.2242  -71.1699 O.2       10 UNK        -0.5018 
     22 N         -71.0949   30.4577  -73.5816 N.am      10 UNK        -0.4509 
     23 C         -70.0367   29.6956  -73.2779 C.2       10 UNK         0.4899 
     24 O         -69.4974   29.6647  -72.1704 O.2       10 UNK        -0.4839 
     25 CA        -69.5240   28.7776  -74.3961 C.3       9 UNK         0.0222 
     26 CB        -68.0099   28.5179  -74.2872 C.3       9 UNK        -0.1966 
     27 N         -70.2367   27.5050  -74.3182 N.am      9 UNK        -0.4218 
     28 C         -71.3882   27.2342  -74.9431 C.2       9 UNK         0.5020 
     29 O         -71.9498   28.0087  -75.7216 O.2       9 UNK        -0.5274 
     30 CA        -72.0364   25.8824  -74.6044 C.3       8 UNK         0.0270 
     31 CB        -73.1774   26.0675  -73.5904 C.3       8 UNK        -0.1976 
     32 N         -72.5598   25.2073  -75.7908 N.am      8 UNK        -0.4313 
     33 C         -71.8107   24.6631  -76.7579 C.2       8 UNK         0.5041 
     34 O         -70.5790   24.6960  -76.7676 O.2       8 UNK        -0.5577 
     35 CA        -72.5448   23.9251  -77.8872 C.3       7 UNK         0.0284 
     36 CB        -72.9155   22.5015  -77.4372 C.3       7 UNK        -0.1958 
     37 N         -73.7619   24.6205  -78.3132 N.am      7 UNK        -0.4454 
     38 C         -73.9447   25.1695  -79.5220 C.2       7 UNK         0.5089 
     39 O         -73.0777   25.1998  -80.3966 O.2       7 UNK        -0.5125 
     40 CA        -75.3328   25.7595  -79.8427 C.3       6 UNK         0.0408 
     41 CB        -76.1203   24.8008  -80.7503 C.3       6 UNK        -0.1791 
     42 N         -76.1452   26.0583  -78.6625 N.am      6 UNK        -0.4762 
     43 C         -75.9260   27.0822  -77.8229 C.2       6 UNK         0.5007 
     44 O         -75.0199   27.9014  -77.9736 O.2       6 UNK        -0.5032 
     45 CA        -76.8744   27.1982  -76.6054 C.3       5 UNK         0.0783 
     46 C46       -78.1130   28.0553  -76.9835 C.3       11 UNK        -0.0857 
     47 S47       -77.7825   29.8460  -76.8773 S.3       11 UNK        -0.2512 
     48 C48       -78.7079   30.3043  -75.3793 C.3       11 UNK         0.0225 
     49 N         -77.2970   25.9011  -76.0567 N.am      5 UNK        -0.4615 
     50 C         -76.5234   24.8382  -75.7878 C.2       4 UNK         0.5053 
     51 O         -75.2961   24.8521  -75.8557 O.2       4 UNK        -0.5105 
     52 CA        -77.2249   23.5058  -75.4621 C.3       4 UNK         0.0263 
     53 CB        -77.1323   23.2159  -73.9557 C.3       4 UNK        -0.1981 
     54 N         -78.6306   23.4399  -75.8751 N.am      4 UNK        -0.4224 
     55 C         -79.1269   23.6662  -77.1016 C.2       3 UNK         0.4895 
     56 O         -78.4220   23.8553  -78.0950 O.2       3 UNK        -0.5091 
     57 CA        -80.6623   23.7590  -77.2410 C.3       3 UNK         0.0250 
     58 CB        -81.1851   22.6564  -78.1772 C.3       3 UNK        -0.1996 
     59 N         -81.4188   23.7087  -75.9795 N.am      3 UNK        -0.4254 
     60 C         -81.3418   24.5786  -74.9599 C.2       2 UNK         0.5004 
     61 O         -80.5895   25.5562  -74.9554 O.2       2 UNK        -0.5226 
     62 CA        -82.1955   24.2233  -73.7241 C.3       2 UNK         0.0269 
     63 CB        -81.7382   22.8851  -73.1119 C.3       2 UNK        -0.1926 
     64 N         -82.1785   25.2269  -72.6569 N.am      2 UNK        -0.4687 
     65 C         -82.6617   26.4743  -72.7276 C.2       1 UNK         0.5165 
     66 O         -83.1665   26.9634  -73.7398 O.2       1 UNK        -0.5079 
     67 H67       -85.1884   25.5821  -68.1335 H         1 UNK         0.0900 
     68 H68       -84.7416   24.1352  -69.0419 H         1 UNK         0.0900 
     69 H69       -83.5029   25.0632  -68.1943 H         1 UNK         0.0900 
     70 H70       -82.2732   26.3107  -69.5897 H         1 UNK         0.2959 
     71 H71       -83.3912   28.0664  -71.5361 H         1 UNK         0.1079 
     72 H72       -81.4348   28.8394  -70.5008 H         1 UNK         0.0837 
     73 H73       -80.9471   28.5015  -72.1206 H         1 UNK         0.0837 
     74 H74       -78.0881   25.9285  -71.5976 H         1 UNK         0.0685 
     75 H75       -79.4359   26.1191  -72.6834 H         1 UNK         0.0685 
     76 H76       -79.5816   28.0524  -74.1056 H         1 UNK         0.1434 
     77 H77       -76.5613   31.0901  -73.8976 H         1 UNK         0.1329 
     78 H78       -76.6958   27.9858  -70.9379 H         1 UNK         0.1335 
     79 H79       -75.4231   30.1630  -70.5618 H         1 UNK         0.0680 
     80 H80       -75.2418   31.2906  -71.8863 H         1 UNK         0.0680 
     81 H81       -71.7968   30.0692  -70.8849 H         1 UNK         0.1032 
     82 H82       -73.0195   31.3012  -70.8267 H         1 UNK         0.1032 
     83 H83       -72.5881   31.8239  -73.2618 H         1 UNK         0.0461 
     84 H84       -69.5808   32.4371  -73.6351 H         1 UNK         0.3453 
     85 H85       -69.3434   33.7405  -72.4965 H         1 UNK         0.3453 
     86 H86       -71.4898   30.3814  -74.5090 H         1 UNK         0.2984 
     87 H87       -69.7105   29.2570  -75.3598 H         1 UNK         0.0554 
     88 H88       -67.7456   28.0110  -73.3581 H         1 UNK         0.0847 
     89 H89       -67.4519   29.4546  -74.3167 H         1 UNK         0.0847 
     90 H90       -67.6543   27.9036  -75.1146 H         1 UNK         0.0847 
     91 H91       -69.8699   26.8287  -73.6633 H         1 UNK         0.3141 
     92 H92       -71.2842   25.2292  -74.1569 H         1 UNK         0.0743 
     93 H93       -73.9614   26.7182  -73.9815 H         1 UNK         0.0784 
     94 H94       -73.6361   25.1142  -73.3271 H         1 UNK         0.0784 
     95 H95       -72.8103   26.5172  -72.6672 H         1 UNK         0.0784 
     96 H96       -73.5746   25.1313  -75.8492 H         1 UNK         0.3213 
     97 H97       -71.8445   23.8373  -78.7207 H         1 UNK         0.0855 
     98 H98       -73.6219   22.5096  -76.6059 H         1 UNK         0.0814 
     99 H99       -72.0314   21.9524  -77.1099 H         1 UNK         0.0814 
    100 H100      -73.3651   21.9343  -78.2523 H         1 UNK         0.0814 
    101 H101      -74.5079   24.6920  -77.6289 H         1 UNK         0.3105 
    102 H102      -75.1727   26.6902  -80.3911 H         1 UNK         0.0547 
    103 H103      -75.5621   24.5736  -81.6596 H         1 UNK         0.0837 
    104 H104      -76.3299   23.8540  -80.2504 H         1 UNK         0.0837 
    105 H105      -77.0722   25.2350  -81.0565 H         1 UNK         0.0837 
    106 H106      -76.9074   25.4192  -78.4616 H         1 UNK         0.3020 
    107 H107      -76.3196   27.6959  -75.8063 H         1 UNK         0.1245 
    108 H108      -78.9578   27.8209  -76.3360 H         1 UNK         0.0781 
    109 H109      -78.4694   27.8242  -77.9897 H         1 UNK         0.0781 
    110 H110      -79.7599   30.0430  -75.5053 H         1 UNK         0.0836 
    111 H111      -78.6781   31.3889  -75.2642 H         1 UNK         0.0836 
    112 H112      -78.2938   25.7826  -75.9362 H         1 UNK         0.3022 
    113 H113      -76.6898   22.7215  -76.0012 H         1 UNK         0.0747 
    114 H114      -77.5309   22.2303  -73.7145 H         1 UNK         0.0793 
    115 H115      -76.0952   23.2350  -73.6168 H         1 UNK         0.0793 
    116 H116      -77.6802   23.9544  -73.3690 H         1 UNK         0.0793 
    117 H117      -79.3011   23.3110  -75.1327 H         1 UNK         0.3047 
    118 H118      -80.8712   24.7257  -77.7037 H         1 UNK         0.0822 
    119 H119      -82.2520   22.7707  -78.3703 H         1 UNK         0.0807 
    120 H120      -81.0222   21.6621  -77.7595 H         1 UNK         0.0807 
    121 H121      -80.6805   22.6896  -79.1441 H         1 UNK         0.0807 
    122 H122      -82.0516   22.9268  -75.8858 H         1 UNK         0.2946 
    123 H123      -83.2295   24.1236  -74.0621 H         1 UNK         0.1144 
    124 H124      -81.8098   22.0647  -73.8267 H         1 UNK         0.0793 
    125 H125      -82.3575   22.6094  -72.2578 H         1 UNK         0.0793 
    126 H126      -80.7030   22.9318  -72.7706 H         1 UNK         0.0793 
    127 H127      -81.7786   24.9380  -71.7763 H         1 UNK         0.2896 
@<TRIPOS>BOND
     1    1    2 1    
     2    1   67 1    
     3    1   68 1    
     4    1   69 1    
     5    2    3 2    
     6    2    4 am   BACKBONE|DICT|INTERRES
     7    4    5 1    
     8    4   70 1    
     9    5    6 1    
    10    5   65 1    
    11    5   71 1    
    12    6    7 1    
    13    6   72 1    
    14    6   73 1    
    15    7    8 1    
    16    8    9 1    
    17    8   74 1    
    18    8   75 1    
    19    9   10 ar   
    20    9   14 ar   
    21   10   11 ar   
    22   10   76 1    
    23   11   12 ar   
    24   11   48 1    
    25   12   13 ar   
    26   12   77 1    
    27   13   14 ar   
    28   13   15 1    
    29   14   78 1    
    30   15   16 1    
    31   15   79 1    
    32   15   80 1    
    33   16   17 1    
    34   17   18 1    
    35   17   81 1    
    36   17   82 1    
    37   18   19 1    
    38   18   22 1    
    39   18   83 1    
    40   19   20 am   BACKBONE|DICT|INTERRES
    41   19   21 2    
    42   20   84 1    
    43   20   85 1    
    44   22   23 am   BACKBONE|DICT|INTERRES
    45   22   86 1    
    46   23   24 2    
    47   23   25 1    
    48   25   26 1    
    49   25   27 1    
    50   25   87 1    
    51   26   88 1    
    52   26   89 1    
    53   26   90 1    
    54   27   28 am   BACKBONE|DICT|INTERRES
    55   27   91 1    
    56   28   29 2    
    57   28   30 1    
    58   30   31 1    
    59   30   32 1    
    60   30   92 1    
    61   31   93 1    
    62   31   94 1    
    63   31   95 1    
    64   32   33 am   BACKBONE|DICT|INTERRES
    65   32   96 1    
    66   33   34 2    
    67   33   35 1    
    68   35   36 1    
    69   35   37 1    
    70   35   97 1    
    71   36   98 1    
    72   36   99 1    
    73   36  100 1    
    74   37   38 am   BACKBONE|DICT|INTERRES
    75   37  101 1    
    76   38   39 2    
    77   38   40 1    
    78   40   41 1    
    79   40   42 1    
    80   40  102 1    
    81   41  103 1    
    82   41  104 1    
    83   41  105 1    
    84   42   43 am   BACKBONE|DICT|INTERRES
    85   42  106 1    
    86   43   44 2    
    87   43   45 1    
    88   45   46 1    
    89   45   49 1    
    90   45  107 1    
    91   46   47 1    
    92   46  108 1    
    93   46  109 1    
    94   47   48 1    
    95   48  110 1    
    96   48  111 1    
    97   49   50 am   BACKBONE|DICT|INTERRES
    98   49  112 1    
    99   50   51 2    
   100   50   52 1    
   101   52   53 1    
   102   52   54 1    
   103   52  113 1    
   104   53  114 1    
   105   53  115 1    
   106   53  116 1    
   107   54   55 am   BACKBONE|DICT|INTERRES
   108   54  117 1    
   109   55   56 2    
   110   55   57 1    
   111   57   58 1    
   112   57   59 1    
   113   57  118 1    
   114   58  119 1    
   115   58  120 1    
   116   58  121 1    
   117   59   60 am   BACKBONE|DICT|INTERRES
   118   59  122 1    
   119   60   61 2    
   120   60   62 1    
   121   62   63 1    
   122   62   64 1    
   123   62  123 1    
   124   63  124 1    
   125   63  125 1    
   126   63  126 1    
   127   64   65 am   BACKBONE|DICT|INTERRES
   128   64  127 1    
   129   65   66 2    
@<TRIPOS>SUBSTRUCTURE
     1 UNK         1 GROUP             0       ****    0 ROOT    
