@<TRIPOS>MOLECULE
3R135
127   129    1
SMALL
USER_CHARGES


@<TRIPOS>ATOM
      1 CA        -81.4975   24.5017  -72.5754 C.3       0 UNK        -0.1998 
      2 C         -81.7948   25.6438  -73.5345 C.2       0 UNK         0.4909 
      3 O         -82.7984   25.5992  -74.2461 O.2       0 UNK        -0.5240 
      4 N         -80.9295   26.6660  -73.5669 N.am      1 UNK        -0.4739 
      5 CA        -81.0854   27.8731  -74.3970 C.3       1 UNK         0.0864 
      6 C6        -80.4403   29.1212  -73.7390 C.3       11 UNK        -0.0881 
      7 S7        -81.1191   29.4621  -72.0761 S.3       11 UNK        -0.2682 
      8 C8        -79.8432   30.5513  -71.3491 C.3       11 UNK         0.0289 
      9 C9        -78.4409   29.9494  -71.3639 C.ar      11 UNK        -0.0687 
     10 C10       -78.2307   28.6121  -71.0130 C.ar      11 UNK        -0.0823 
     11 C11       -76.9607   28.0400  -71.1133 C.ar      11 UNK        -0.0830 
     12 C12       -75.8813   28.8297  -71.5206 C.ar      11 UNK        -0.1021 
     13 C13       -76.0662   30.1829  -71.8228 C.ar      11 UNK        -0.0753 
     14 C14       -77.3497   30.7334  -71.7521 C.ar      11 UNK        -0.0933 
     15 C15       -74.8871   31.0391  -72.2621 C.3       11 UNK         0.0166 
     16 S16       -73.5957   31.1415  -70.9837 S.3       11 UNK        -0.2615 
     17 C17       -72.2867   32.0516  -71.8803 C.3       11 UNK        -0.0865 
     18 CA        -71.0532   31.2211  -72.3537 C.3       10 UNK         0.0862 
     19 C         -70.2925   30.4776  -71.2114 C.2       10 UNK         0.5551 
     20 N         -69.7410   29.2929  -71.4407 N.am      10 UNK        -0.7319 
     21 O         -70.1481   31.0109  -70.1137 O.2       10 UNK        -0.5018 
     22 N         -71.2891   30.4810  -73.6102 N.am      10 UNK        -0.4509 
     23 C         -71.9608   29.3364  -73.7863 C.2       10 UNK         0.4899 
     24 O         -72.4479   28.6588  -72.8809 O.2       10 UNK        -0.4839 
     25 CA        -72.0916   28.8498  -75.2384 C.3       9 UNK         0.0222 
     26 CB        -71.2158   27.6100  -75.4825 C.3       9 UNK        -0.1966 
     27 N         -73.4845   28.5206  -75.5311 N.am      9 UNK        -0.4218 
     28 C         -74.4504   29.4256  -75.7345 C.2       9 UNK         0.5020 
     29 O         -74.2435   30.6379  -75.8258 O.2       9 UNK        -0.5274 
     30 CA        -75.8824   28.8703  -75.8443 C.3       8 UNK         0.0270 
     31 CB        -76.9591   29.9695  -75.9640 C.3       8 UNK        -0.1976 
     32 N         -76.0081   27.8811  -76.9204 N.am      8 UNK        -0.4313 
     33 C         -75.8010   28.0646  -78.2342 C.2       8 UNK         0.5041 
     34 O         -75.5237   29.1479  -78.7515 O.2       8 UNK        -0.5577 
     35 CA        -75.9432   26.8071  -79.1153 C.3       7 UNK         0.0284 
     36 CB        -75.3041   26.9626  -80.5128 C.3       7 UNK        -0.1958 
     37 N         -75.4725   25.5933  -78.4338 N.am      7 UNK        -0.4454 
     38 C         -74.2125   25.3048  -78.0764 C.2       7 UNK         0.5089 
     39 O         -73.2393   26.0165  -78.3290 O.2       7 UNK        -0.5125 
     40 CA        -74.0333   24.0052  -77.2696 C.3       6 UNK         0.0408 
     41 CB        -72.5590   23.7237  -76.9085 C.3       6 UNK        -0.1791 
     42 N         -74.8728   23.9653  -76.0645 N.am      6 UNK        -0.4762 
     43 C         -74.8580   24.8222  -75.0304 C.2       6 UNK         0.5007 
     44 O         -74.1651   25.8387  -75.0057 O.2       6 UNK        -0.5032 
     45 CA        -75.7767   24.5248  -73.8240 C.3       5 UNK         0.0783 
     46 C46       -76.6690   25.7470  -73.4975 C.3       11 UNK        -0.0857 
     47 S47       -77.6526   25.5014  -71.9816 S.3       11 UNK        -0.2512 
     48 C48       -76.7690   26.5648  -70.7940 C.3       11 UNK         0.0225 
     49 N         -76.5820   23.3156  -74.0059 N.am      5 UNK        -0.4615 
     50 C         -76.1880   22.0527  -73.8227 C.2       4 UNK         0.5053 
     51 O         -75.0538   21.7394  -73.4628 O.2       4 UNK        -0.5105 
     52 CA        -77.2194   20.9470  -74.1287 C.3       4 UNK         0.0263 
     53 CB        -78.0518   20.6098  -72.8757 C.3       4 UNK        -0.1981 
     54 N         -78.0796   21.2193  -75.2961 N.am      4 UNK        -0.4224 
     55 C         -79.0051   22.1787  -75.4442 C.2       3 UNK         0.4895 
     56 O         -79.3210   22.9783  -74.5601 O.2       3 UNK        -0.5091 
     57 CA        -79.6650   22.2916  -76.8264 C.3       3 UNK         0.0250 
     58 CB        -80.9639   21.4714  -76.8695 C.3       3 UNK        -0.1996 
     59 N         -79.9682   23.6882  -77.1448 N.am      3 UNK        -0.4254 
     60 C         -79.0515   24.6433  -77.3565 C.2       2 UNK         0.5004 
     61 O         -77.8360   24.4461  -77.3986 O.2       2 UNK        -0.5226 
     62 CA        -79.5907   26.0680  -77.4842 C.3       2 UNK         0.0269 
     63 CB        -80.5983   26.1964  -78.6465 C.3       2 UNK        -0.1926 
     64 N         -80.1770   26.4470  -76.2013 N.am      2 UNK        -0.4687 
     65 C         -80.5663   27.6763  -75.8412 C.2       1 UNK         0.5165 
     66 O         -80.5132   28.6462  -76.5985 O.2       1 UNK        -0.5079 
     67 H67       -80.4992   24.5789  -72.1467 H         1 UNK         0.0900 
     68 H68       -81.5635   23.5469  -73.0965 H         1 UNK         0.0900 
     69 H69       -82.2208   24.4969  -71.7607 H         1 UNK         0.0900 
     70 H70       -80.1174   26.6505  -72.9653 H         1 UNK         0.2959 
     71 H71       -82.1530   28.0817  -74.4976 H         1 UNK         0.1079 
     72 H72       -79.3588   28.9900  -73.6811 H         1 UNK         0.0837 
     73 H73       -80.6058   30.0123  -74.3476 H         1 UNK         0.0837 
     74 H74       -79.8579   31.5000  -71.8880 H         1 UNK         0.0685 
     75 H75       -80.1179   30.7758  -70.3179 H         1 UNK         0.0685 
     76 H76       -79.0658   27.9998  -70.7013 H         1 UNK         0.1434 
     77 H77       -74.8921   28.3982  -71.6002 H         1 UNK         0.1329 
     78 H78       -77.5018   31.7721  -72.0122 H         1 UNK         0.1335 
     79 H79       -74.4618   30.6105  -73.1652 H         1 UNK         0.0680 
     80 H80       -75.2123   32.0479  -72.5211 H         1 UNK         0.0680 
     81 H81       -71.9439   32.8448  -71.2134 H         1 UNK         0.1032 
     82 H82       -72.7254   32.5745  -72.7314 H         1 UNK         0.1032 
     83 H83       -70.3213   31.9675  -72.6650 H         1 UNK         0.0461 
     84 H84       -69.8734   28.8375  -72.3290 H         1 UNK         0.3453 
     85 H85       -69.2352   28.8300  -70.7022 H         1 UNK         0.3453 
     86 H86       -70.9044   30.9240  -74.4324 H         1 UNK         0.2984 
     87 H87       -71.7686   29.6382  -75.9216 H         1 UNK         0.0554 
     88 H88       -70.1626   27.8336  -75.3092 H         1 UNK         0.0847 
     89 H89       -71.3095   27.2553  -76.5094 H         1 UNK         0.0847 
     90 H90       -71.4896   26.7865  -74.8213 H         1 UNK         0.0847 
     91 H91       -73.7415   27.5402  -75.4187 H         1 UNK         0.3141 
     92 H92       -76.0739   28.3427  -74.9106 H         1 UNK         0.0743 
     93 H93       -76.9243   30.6404  -75.1046 H         1 UNK         0.0784 
     94 H94       -76.8227   30.5785  -76.8580 H         1 UNK         0.0784 
     95 H95       -77.9602   29.5416  -75.9997 H         1 UNK         0.0784 
     96 H96       -76.1776   26.9321  -76.6212 H         1 UNK         0.3213 
     97 H97       -77.0129   26.6681  -79.2733 H         1 UNK         0.0855 
     98 H98       -75.7826   27.7683  -81.0708 H         1 UNK         0.0814 
     99 H99       -75.4117   26.0528  -81.1030 H         1 UNK         0.0814 
    100 H100      -74.2421   27.2017  -80.4522 H         1 UNK         0.0814 
    101 H101      -76.2101   24.9600  -78.1252 H         1 UNK         0.3105 
    102 H102      -74.3751   23.1929  -77.9127 H         1 UNK         0.0547 
    103 H103      -71.9436   23.6578  -77.8065 H         1 UNK         0.0837 
    104 H104      -72.1359   24.5110  -76.2837 H         1 UNK         0.0837 
    105 H105      -72.4546   22.7797  -76.3742 H         1 UNK         0.0837 
    106 H106      -75.5255   23.1963  -76.0100 H         1 UNK         0.3020 
    107 H107      -75.1086   24.3608  -72.9753 H         1 UNK         0.1245 
    108 H108      -77.3565   25.9542  -74.3199 H         1 UNK         0.0781 
    109 H109      -76.0592   26.6419  -73.3738 H         1 UNK         0.0781 
    110 H110      -75.7112   26.2972  -70.7837 H         1 UNK         0.0836 
    111 H111      -77.1466   26.3646  -69.7903 H         1 UNK         0.0836 
    112 H112      -77.5606   23.4584  -74.2441 H         1 UNK         0.3022 
    113 H113      -76.6470   20.0549  -74.3885 H         1 UNK         0.0747 
    114 H114      -77.4061   20.2921  -72.0560 H         1 UNK         0.0793 
    115 H115      -78.6236   21.4674  -72.5196 H         1 UNK         0.0793 
    116 H116      -78.7517   19.7974  -73.0709 H         1 UNK         0.0793 
    117 H117      -77.8939   20.6300  -76.0966 H         1 UNK         0.3047 
    118 H118      -78.9766   21.9113  -77.5843 H         1 UNK         0.0822 
    119 H119      -80.7692   20.4181  -76.6628 H         1 UNK         0.0807 
    120 H120      -81.4357   21.5254  -77.8508 H         1 UNK         0.0807 
    121 H121      -81.6858   21.8202  -76.1294 H         1 UNK         0.0807 
    122 H122      -80.9396   23.9581  -77.0958 H         1 UNK         0.2946 
    123 H123      -78.7473   26.7316  -77.6786 H         1 UNK         0.1144 
    124 H124      -80.8458   27.2386  -78.8468 H         1 UNK         0.0793 
    125 H125      -81.5309   25.6700  -78.4418 H         1 UNK         0.0793 
    126 H126      -80.1849   25.7869  -79.5693 H         1 UNK         0.0793 
    127 H127      -80.2340   25.7129  -75.5069 H         1 UNK         0.2896 
@<TRIPOS>BOND
     1    1    2 1    
     2    1   67 1    
     3    1   68 1    
     4    1   69 1    
     5    2    3 2    
     6    2    4 am   BACKBONE|DICT|INTERRES
     7    4    5 1    
     8    4   70 1    
     9    5    6 1    
    10    5   65 1    
    11    5   71 1    
    12    6    7 1    
    13    6   72 1    
    14    6   73 1    
    15    7    8 1    
    16    8    9 1    
    17    8   74 1    
    18    8   75 1    
    19    9   10 ar   
    20    9   14 ar   
    21   10   11 ar   
    22   10   76 1    
    23   11   12 ar   
    24   11   48 1    
    25   12   13 ar   
    26   12   77 1    
    27   13   14 ar   
    28   13   15 1    
    29   14   78 1    
    30   15   16 1    
    31   15   79 1    
    32   15   80 1    
    33   16   17 1    
    34   17   18 1    
    35   17   81 1    
    36   17   82 1    
    37   18   19 1    
    38   18   22 1    
    39   18   83 1    
    40   19   20 am   BACKBONE|DICT|INTERRES
    41   19   21 2    
    42   20   84 1    
    43   20   85 1    
    44   22   23 am   BACKBONE|DICT|INTERRES
    45   22   86 1    
    46   23   24 2    
    47   23   25 1    
    48   25   26 1    
    49   25   27 1    
    50   25   87 1    
    51   26   88 1    
    52   26   89 1    
    53   26   90 1    
    54   27   28 am   BACKBONE|DICT|INTERRES
    55   27   91 1    
    56   28   29 2    
    57   28   30 1    
    58   30   31 1    
    59   30   32 1    
    60   30   92 1    
    61   31   93 1    
    62   31   94 1    
    63   31   95 1    
    64   32   33 am   BACKBONE|DICT|INTERRES
    65   32   96 1    
    66   33   34 2    
    67   33   35 1    
    68   35   36 1    
    69   35   37 1    
    70   35   97 1    
    71   36   98 1    
    72   36   99 1    
    73   36  100 1    
    74   37   38 am   BACKBONE|DICT|INTERRES
    75   37  101 1    
    76   38   39 2    
    77   38   40 1    
    78   40   41 1    
    79   40   42 1    
    80   40  102 1    
    81   41  103 1    
    82   41  104 1    
    83   41  105 1    
    84   42   43 am   BACKBONE|DICT|INTERRES
    85   42  106 1    
    86   43   44 2    
    87   43   45 1    
    88   45   46 1    
    89   45   49 1    
    90   45  107 1    
    91   46   47 1    
    92   46  108 1    
    93   46  109 1    
    94   47   48 1    
    95   48  110 1    
    96   48  111 1    
    97   49   50 am   BACKBONE|DICT|INTERRES
    98   49  112 1    
    99   50   51 2    
   100   50   52 1    
   101   52   53 1    
   102   52   54 1    
   103   52  113 1    
   104   53  114 1    
   105   53  115 1    
   106   53  116 1    
   107   54   55 am   BACKBONE|DICT|INTERRES
   108   54  117 1    
   109   55   56 2    
   110   55   57 1    
   111   57   58 1    
   112   57   59 1    
   113   57  118 1    
   114   58  119 1    
   115   58  120 1    
   116   58  121 1    
   117   59   60 am   BACKBONE|DICT|INTERRES
   118   59  122 1    
   119   60   61 2    
   120   60   62 1    
   121   62   63 1    
   122   62   64 1    
   123   62  123 1    
   124   63  124 1    
   125   63  125 1    
   126   63  126 1    
   127   64   65 am   BACKBONE|DICT|INTERRES
   128   64  127 1    
   129   65   66 2    
@<TRIPOS>SUBSTRUCTURE
     1 UNK         1 GROUP             0       ****    0 ROOT    
