@<TRIPOS>MOLECULE
3R135
127   129    1
SMALL
USER_CHARGES


@<TRIPOS>ATOM
      1 CA        -82.8443   29.7522  -79.0303 C.3       0 UNK        -0.1998 
      2 C         -81.8478   29.0378  -78.1296 C.2       0 UNK         0.4909 
      3 O         -81.2090   28.0782  -78.5631 O.2       0 UNK        -0.5240 
      4 N         -81.7038   29.5021  -76.8816 N.am      1 UNK        -0.4739 
      5 CA        -80.8428   28.8938  -75.8626 C.3       1 UNK         0.0864 
      6 C6        -80.5405   29.8951  -74.7192 C.3       11 UNK        -0.0881 
      7 S7        -78.8976   29.6041  -73.9937 S.3       11 UNK        -0.2682 
      8 C8        -79.3242   29.1001  -72.3023 C.3       11 UNK         0.0289 
      9 C9        -78.1126   28.5126  -71.5964 C.ar      11 UNK        -0.0687 
     10 C10       -78.0019   27.1291  -71.4313 C.ar      11 UNK        -0.0823 
     11 C11       -76.8896   26.5747  -70.7926 C.ar      11 UNK        -0.0830 
     12 C12       -75.8923   27.4206  -70.3010 C.ar      11 UNK        -0.1021 
     13 C13       -75.9674   28.8015  -70.4997 C.ar      11 UNK        -0.0753 
     14 C14       -77.0895   29.3458  -71.1315 C.ar      11 UNK        -0.0933 
     15 C15       -74.8084   29.6909  -70.0741 C.3       11 UNK         0.0166 
     16 S16       -73.6629   30.0131  -71.4578 S.3       11 UNK        -0.2615 
     17 C17       -73.1992   28.3169  -71.9603 C.3       11 UNK        -0.0865 
     18 CA        -71.9344   28.2632  -72.8509 C.3       10 UNK         0.0862 
     19 C         -71.5192   26.7930  -73.1257 C.2       10 UNK         0.5551 
     20 N         -70.5935   26.2539  -72.3452 N.am      10 UNK        -0.7319 
     21 O         -72.0599   26.1239  -74.0043 O.2       10 UNK        -0.5018 
     22 N         -72.1185   29.0205  -74.0952 N.am      10 UNK        -0.4509 
     23 C         -71.1159   29.4662  -74.8654 C.2       10 UNK         0.4899 
     24 O         -69.9269   29.2830  -74.6003 O.2       10 UNK        -0.4839 
     25 CA        -71.4686   30.2686  -76.1348 C.3       9 UNK         0.0222 
     26 CB        -70.9884   29.5409  -77.4014 C.3       9 UNK        -0.1966 
     27 N         -72.8980   30.5715  -76.2506 N.am      9 UNK        -0.4218 
     28 C         -73.5159   31.5520  -75.5728 C.2       9 UNK         0.5020 
     29 O         -72.9178   32.3670  -74.8685 O.2       9 UNK        -0.5274 
     30 CA        -75.0517   31.6581  -75.6775 C.3       8 UNK         0.0270 
     31 CB        -75.4543   32.9061  -76.4813 C.3       8 UNK        -0.1976 
     32 N         -75.7232   30.4889  -76.2530 N.am      8 UNK        -0.4313 
     33 C         -75.7269   29.2556  -75.7312 C.2       8 UNK         0.5041 
     34 O         -75.1102   28.9490  -74.7100 O.2       8 UNK        -0.5577 
     35 CA        -76.5088   28.1655  -76.4941 C.3       7 UNK         0.0284 
     36 CB        -77.1277   28.6316  -77.8316 C.3       7 UNK        -0.1958 
     37 N         -75.6903   26.9687  -76.7002 N.am      7 UNK        -0.4454 
     38 C         -74.4629   26.9023  -77.2371 C.2       7 UNK         0.5089 
     39 O         -73.8960   27.8654  -77.7578 O.2       7 UNK        -0.5125 
     40 CA        -73.7448   25.5380  -77.1430 C.3       6 UNK         0.0408 
     41 CB        -72.2314   25.6486  -77.4039 C.3       6 UNK        -0.1791 
     42 N         -73.9594   24.9039  -75.8353 N.am      6 UNK        -0.4762 
     43 C         -75.0373   24.1768  -75.5107 C.2       6 UNK         0.5007 
     44 O         -75.9245   23.9115  -76.3254 O.2       6 UNK        -0.5032 
     45 CA        -75.1745   23.7292  -74.0428 C.3       5 UNK         0.0783 
     46 C46       -75.2835   24.9461  -73.0907 C.3       11 UNK        -0.0857 
     47 S47       -75.1646   24.4573  -71.3358 S.3       11 UNK        -0.2512 
     48 C48       -76.7495   25.0624  -70.6643 C.3       11 UNK         0.0225 
     49 N         -76.3586   22.8786  -73.9307 N.am      5 UNK        -0.4615 
     50 C         -76.4013   21.6550  -73.3941 C.2       4 UNK         0.5053 
     51 O         -75.4246   21.0845  -72.9071 O.2       4 UNK        -0.5105 
     52 CA        -77.7671   20.9398  -73.3839 C.3       4 UNK         0.0263 
     53 CB        -78.3959   21.0153  -71.9825 C.3       4 UNK        -0.1981 
     54 N         -78.7187   21.4794  -74.3596 N.am      4 UNK        -0.4224 
     55 C         -78.6065   21.3573  -75.6896 C.2       3 UNK         0.4895 
     56 O         -77.7326   20.6849  -76.2384 O.2       3 UNK        -0.5091 
     57 CA        -79.6345   22.1027  -76.5627 C.3       3 UNK         0.0250 
     58 CB        -80.5738   21.1028  -77.2588 C.3       3 UNK        -0.1996 
     59 N         -80.4471   23.1034  -75.8573 N.am      3 UNK        -0.4254 
     60 C         -79.9916   24.2585  -75.3537 C.2       2 UNK         0.5004 
     61 O         -78.8014   24.5790  -75.3173 O.2       2 UNK        -0.5226 
     62 CA        -81.0390   25.2067  -74.7636 C.3       2 UNK         0.0269 
     63 CB        -81.1708   25.0076  -73.2440 C.3       2 UNK        -0.1926 
     64 N         -80.6264   26.5752  -75.0670 N.am      2 UNK        -0.4687 
     65 C         -81.4658   27.5795  -75.3427 C.2       1 UNK         0.5165 
     66 O         -82.6900   27.4995  -75.2058 O.2       1 UNK        -0.5079 
     67 H67       -83.6203   29.0592  -79.3543 H         1 UNK         0.0900 
     68 H68       -82.3400   30.1379  -79.9159 H         1 UNK         0.0900 
     69 H69       -83.3262   30.5881  -78.5236 H         1 UNK         0.0900 
     70 H70       -82.2821   30.2688  -76.5685 H         1 UNK         0.2959 
     71 H71       -79.9047   28.6429  -76.3633 H         1 UNK         0.1079 
     72 H72       -80.5204   30.9152  -75.1069 H         1 UNK         0.0837 
     73 H73       -81.3178   29.8891  -73.9521 H         1 UNK         0.0837 
     74 H74       -79.6966   29.9626  -71.7477 H         1 UNK         0.0685 
     75 H75       -80.1367   28.3720  -72.3333 H         1 UNK         0.0685 
     76 H76       -78.7778   26.4840  -71.8136 H         1 UNK         0.1434 
     77 H77       -75.0267   26.9948  -69.8123 H         1 UNK         0.1329 
     78 H78       -77.1522   30.4135  -71.2916 H         1 UNK         0.1335 
     79 H79       -75.1895   30.6419  -69.6992 H         1 UNK         0.0680 
     80 H80       -74.2586   29.2346  -69.2494 H         1 UNK         0.0680 
     81 H81       -74.0485   27.8704  -72.4806 H         1 UNK         0.1032 
     82 H82       -73.0435   27.7238  -71.0574 H         1 UNK         0.1032 
     83 H83       -71.1259   28.7418  -72.2939 H         1 UNK         0.0461 
     84 H84       -70.1480   26.7889  -71.6161 H         1 UNK         0.3453 
     85 H85       -70.3242   25.2951  -72.4985 H         1 UNK         0.3453 
     86 H86       -73.0817   29.1683  -74.3807 H         1 UNK         0.2984 
     87 H87       -70.9220   31.2121  -76.0764 H         1 UNK         0.0554 
     88 H88       -71.2355   30.1016  -78.3029 H         1 UNK         0.0847 
     89 H89       -71.4279   28.5492  -77.4910 H         1 UNK         0.0847 
     90 H90       -69.9055   29.4115  -77.3882 H         1 UNK         0.0847 
     91 H91       -73.4574   29.9168  -76.7850 H         1 UNK         0.3141 
     92 H92       -75.4265   31.7733  -74.6580 H         1 UNK         0.0743 
     93 H93       -76.5348   33.0523  -76.4749 H         1 UNK         0.0784 
     94 H94       -75.0073   33.8064  -76.0569 H         1 UNK         0.0784 
     95 H95       -75.1279   32.8395  -77.5199 H         1 UNK         0.0784 
     96 H96       -76.2302   30.6402  -77.1127 H         1 UNK         0.3213 
     97 H97       -77.3236   27.8627  -75.8359 H         1 UNK         0.0855 
     98 H98       -76.3681   28.9504  -78.5467 H         1 UNK         0.0814 
     99 H99       -77.8235   29.4587  -77.6845 H         1 UNK         0.0814 
    100 H100      -77.6959   27.8260  -78.2972 H         1 UNK         0.0814 
    101 H101      -76.0664   26.1074  -76.3236 H         1 UNK         0.3105 
    102 H102      -74.1646   24.9035  -77.9261 H         1 UNK         0.0547 
    103 H103      -72.0319   26.0636  -78.3926 H         1 UNK         0.0837 
    104 H104      -71.7435   26.2938  -76.6731 H         1 UNK         0.0837 
    105 H105      -71.7495   24.6720  -77.3615 H         1 UNK         0.0837 
    106 H106      -73.2914   25.1643  -75.1115 H         1 UNK         0.3020 
    107 H107      -74.2730   23.1608  -73.8022 H         1 UNK         0.1245 
    108 H108      -76.2143   25.4872  -73.2718 H         1 UNK         0.0781 
    109 H109      -74.4865   25.6653  -73.2714 H         1 UNK         0.0781 
    110 H110      -76.8173   24.7873  -69.6111 H         1 UNK         0.0836 
    111 H111      -77.5654   24.5470  -71.1736 H         1 UNK         0.0836 
    112 H112      -77.1817   23.2420  -74.3978 H         1 UNK         0.3022 
    113 H113      -77.5891   19.8898  -73.6261 H         1 UNK         0.0747 
    114 H114      -79.3286   20.4531  -71.9337 H         1 UNK         0.0793 
    115 H115      -77.7261   20.5939  -71.2313 H         1 UNK         0.0793 
    116 H116      -78.6059   22.0448  -71.6891 H         1 UNK         0.0793 
    117 H117      -79.4757   22.0396  -73.9975 H         1 UNK         0.3047 
    118 H118      -79.0643   22.6274  -77.3327 H         1 UNK         0.0822 
    119 H119      -81.2418   21.6051  -77.9589 H         1 UNK         0.0807 
    120 H120      -81.1863   20.5570  -76.5401 H         1 UNK         0.0807 
    121 H121      -80.0080   20.3653  -77.8302 H         1 UNK         0.0807 
    122 H122      -81.4389   22.9153  -75.8148 H         1 UNK         0.2946 
    123 H123      -82.0023   25.0053  -75.2392 H         1 UNK         0.1144 
    124 H124      -81.8233   25.7578  -72.7968 H         1 UNK         0.0793 
    125 H125      -80.2043   25.0592  -72.7453 H         1 UNK         0.0793 
    126 H126      -81.5983   24.0303  -73.0169 H         1 UNK         0.0793 
    127 H127      -79.6306   26.6863  -75.2116 H         1 UNK         0.2896 
@<TRIPOS>BOND
     1    1    2 1    
     2    1   67 1    
     3    1   68 1    
     4    1   69 1    
     5    2    3 2    
     6    2    4 am   BACKBONE|DICT|INTERRES
     7    4    5 1    
     8    4   70 1    
     9    5    6 1    
    10    5   65 1    
    11    5   71 1    
    12    6    7 1    
    13    6   72 1    
    14    6   73 1    
    15    7    8 1    
    16    8    9 1    
    17    8   74 1    
    18    8   75 1    
    19    9   10 ar   
    20    9   14 ar   
    21   10   11 ar   
    22   10   76 1    
    23   11   12 ar   
    24   11   48 1    
    25   12   13 ar   
    26   12   77 1    
    27   13   14 ar   
    28   13   15 1    
    29   14   78 1    
    30   15   16 1    
    31   15   79 1    
    32   15   80 1    
    33   16   17 1    
    34   17   18 1    
    35   17   81 1    
    36   17   82 1    
    37   18   19 1    
    38   18   22 1    
    39   18   83 1    
    40   19   20 am   BACKBONE|DICT|INTERRES
    41   19   21 2    
    42   20   84 1    
    43   20   85 1    
    44   22   23 am   BACKBONE|DICT|INTERRES
    45   22   86 1    
    46   23   24 2    
    47   23   25 1    
    48   25   26 1    
    49   25   27 1    
    50   25   87 1    
    51   26   88 1    
    52   26   89 1    
    53   26   90 1    
    54   27   28 am   BACKBONE|DICT|INTERRES
    55   27   91 1    
    56   28   29 2    
    57   28   30 1    
    58   30   31 1    
    59   30   32 1    
    60   30   92 1    
    61   31   93 1    
    62   31   94 1    
    63   31   95 1    
    64   32   33 am   BACKBONE|DICT|INTERRES
    65   32   96 1    
    66   33   34 2    
    67   33   35 1    
    68   35   36 1    
    69   35   37 1    
    70   35   97 1    
    71   36   98 1    
    72   36   99 1    
    73   36  100 1    
    74   37   38 am   BACKBONE|DICT|INTERRES
    75   37  101 1    
    76   38   39 2    
    77   38   40 1    
    78   40   41 1    
    79   40   42 1    
    80   40  102 1    
    81   41  103 1    
    82   41  104 1    
    83   41  105 1    
    84   42   43 am   BACKBONE|DICT|INTERRES
    85   42  106 1    
    86   43   44 2    
    87   43   45 1    
    88   45   46 1    
    89   45   49 1    
    90   45  107 1    
    91   46   47 1    
    92   46  108 1    
    93   46  109 1    
    94   47   48 1    
    95   48  110 1    
    96   48  111 1    
    97   49   50 am   BACKBONE|DICT|INTERRES
    98   49  112 1    
    99   50   51 2    
   100   50   52 1    
   101   52   53 1    
   102   52   54 1    
   103   52  113 1    
   104   53  114 1    
   105   53  115 1    
   106   53  116 1    
   107   54   55 am   BACKBONE|DICT|INTERRES
   108   54  117 1    
   109   55   56 2    
   110   55   57 1    
   111   57   58 1    
   112   57   59 1    
   113   57  118 1    
   114   58  119 1    
   115   58  120 1    
   116   58  121 1    
   117   59   60 am   BACKBONE|DICT|INTERRES
   118   59  122 1    
   119   60   61 2    
   120   60   62 1    
   121   62   63 1    
   122   62   64 1    
   123   62  123 1    
   124   63  124 1    
   125   63  125 1    
   126   63  126 1    
   127   64   65 am   BACKBONE|DICT|INTERRES
   128   64  127 1    
   129   65   66 2    
@<TRIPOS>SUBSTRUCTURE
     1 UNK         1 GROUP             0       ****    0 ROOT    
