@<TRIPOS>MOLECULE
3R135
127   129    1
SMALL
USER_CHARGES


@<TRIPOS>ATOM
      1 CA        -76.1532   22.8210  -69.8261 C.3       0 UNK        -0.1998 
      2 C         -77.6065   22.5403  -70.1783 C.2       0 UNK         0.4909 
      3 O         -77.9931   21.3783  -70.3049 O.2       0 UNK        -0.5240 
      4 N         -78.4145   23.5973  -70.3327 N.am      1 UNK        -0.4739 
      5 CA        -79.8376   23.5403  -70.6959 C.3       1 UNK         0.0864 
      6 C6        -80.5839   24.8871  -70.4526 C.3       11 UNK        -0.0881 
      7 S7        -79.5718   26.4052  -70.5937 S.3       11 UNK        -0.2682 
      8 C8        -79.6976   26.8199  -72.3637 C.3       11 UNK         0.0289 
      9 C9        -78.9759   28.1234  -72.6896 C.ar      11 UNK        -0.0687 
     10 C10       -79.6390   29.1481  -73.3716 C.ar      11 UNK        -0.0823 
     11 C11       -78.9760   30.3400  -73.6850 C.ar      11 UNK        -0.0830 
     12 C12       -77.6427   30.5118  -73.2959 C.ar      11 UNK        -0.1021 
     13 C13       -76.9709   29.4982  -72.6071 C.ar      11 UNK        -0.0753 
     14 C14       -77.6394   28.3058  -72.3191 C.ar      11 UNK        -0.0933 
     15 C15       -75.5342   29.6897  -72.1435 C.3       11 UNK         0.0166 
     16 S16       -74.3472   29.0729  -73.3736 S.3       11 UNK        -0.2615 
     17 C17       -74.1351   30.5290  -74.4654 C.3       11 UNK        -0.0865 
     18 CA        -72.6559   30.7893  -74.8602 C.3       10 UNK         0.0862 
     19 C         -71.8654   31.4900  -73.7143 C.2       10 UNK         0.5551 
     20 N         -70.8453   30.8782  -73.1232 N.am      10 UNK        -0.7319 
     21 O         -72.1831   32.6234  -73.3628 O.2       10 UNK        -0.5018 
     22 N         -72.0446   29.5624  -75.3826 N.am      10 UNK        -0.4509 
     23 C         -70.9104   29.4571  -76.0818 C.2       10 UNK         0.4899 
     24 O         -70.2859   30.4199  -76.5285 O.2       10 UNK        -0.4839 
     25 CA        -70.3920   28.0169  -76.2963 C.3       9 UNK         0.0222 
     26 CB        -68.8656   27.9640  -76.5159 C.3       9 UNK        -0.1966 
     27 N         -70.8003   27.0856  -75.2282 N.am      9 UNK        -0.4218 
     28 C         -70.5315   27.1966  -73.9148 C.2       9 UNK         0.5020 
     29 O         -69.8512   28.1039  -73.4330 O.2       9 UNK        -0.5274 
     30 CA        -71.2055   26.1725  -72.9874 C.3       8 UNK         0.0270 
     31 CB        -71.1087   26.5535  -71.4975 C.3       8 UNK        -0.1976 
     32 N         -72.6134   26.0455  -73.3598 N.am      8 UNK        -0.4313 
     33 C         -73.2504   24.8978  -73.6118 C.2       8 UNK         0.5041 
     34 O         -72.7574   23.7804  -73.4542 O.2       8 UNK        -0.5577 
     35 CA        -74.6777   25.0277  -74.1727 C.3       7 UNK         0.0284 
     36 CB        -75.6758   25.2318  -73.0202 C.3       7 UNK        -0.1958 
     37 N         -74.8487   26.1025  -75.1634 N.am      7 UNK        -0.4454 
     38 C         -74.1266   26.2747  -76.2844 C.2       7 UNK         0.5089 
     39 O         -73.1329   25.6038  -76.5655 O.2       7 UNK        -0.5125 
     40 CA        -74.5677   27.3908  -77.2487 C.3       6 UNK         0.0408 
     41 CB        -74.3988   26.9858  -78.7256 C.3       6 UNK        -0.1791 
     42 N         -75.9490   27.8033  -77.0029 N.am      6 UNK        -0.4762 
     43 C         -76.4512   29.0243  -77.2133 C.2       6 UNK         0.5007 
     44 O         -75.8027   29.9549  -77.6944 O.2       6 UNK        -0.5032 
     45 CA        -77.9329   29.2225  -76.8308 C.3       5 UNK         0.0783 
     46 C46       -78.3491   30.7169  -76.8304 C.3       11 UNK        -0.0857 
     47 S47       -80.0360   30.9607  -76.1783 S.3       11 UNK        -0.2512 
     48 C48       -79.7013   31.4383  -74.4509 C.3       11 UNK         0.0225 
     49 N         -78.8130   28.4079  -77.6755 N.am      5 UNK        -0.4615 
     50 C         -78.9846   27.0870  -77.5631 C.2       4 UNK         0.5053 
     51 O         -78.3812   26.3834  -76.7470 O.2       4 UNK        -0.5105 
     52 CA        -79.9615   26.4426  -78.5507 C.3       4 UNK         0.0263 
     53 CB        -79.2725   26.1671  -79.8979 C.3       4 UNK        -0.1981 
     54 N         -80.4198   25.1827  -77.9781 N.am      4 UNK        -0.4224 
     55 C         -81.6859   24.7565  -77.9274 C.2       3 UNK         0.4895 
     56 O         -82.6267   25.3455  -78.4621 O.2       3 UNK        -0.5091 
     57 CA        -81.9645   23.4483  -77.1594 C.3       3 UNK         0.0250 
     58 CB        -82.3494   22.3241  -78.1364 C.3       3 UNK        -0.1996 
     59 N         -80.8549   22.9833  -76.3168 N.am      3 UNK        -0.4254 
     60 C         -80.4401   23.5791  -75.1904 C.2       2 UNK         0.5004 
     61 O         -80.9245   24.6241  -74.7499 O.2       2 UNK        -0.5226 
     62 CA        -79.2623   22.8979  -74.4654 C.3       2 UNK         0.0269 
     63 CB        -77.9334   23.2306  -75.1644 C.3       2 UNK        -0.1926 
     64 N         -79.1638   23.2757  -73.0523 N.am      2 UNK        -0.4687 
     65 C         -80.0866   22.9992  -72.1196 C.2       1 UNK         0.5165 
     66 O         -81.0978   22.3288  -72.3377 O.2       1 UNK        -0.5079 
     67 H67       -75.4951   22.4103  -70.5914 H         1 UNK         0.0900 
     68 H68       -75.9016   22.3538  -68.8744 H         1 UNK         0.0900 
     69 H69       -75.9523   23.8890  -69.7422 H         1 UNK         0.0900 
     70 H70       -78.0540   24.5321  -70.1964 H         1 UNK         0.2959 
     71 H71       -80.2933   22.8015  -70.0320 H         1 UNK         0.1079 
     72 H72       -81.4734   24.9841  -71.0793 H         1 UNK         0.0837 
     73 H73       -80.9680   24.8816  -69.4314 H         1 UNK         0.0837 
     74 H74       -79.2583   26.0220  -72.9613 H         1 UNK         0.0685 
     75 H75       -80.7506   26.8775  -72.6436 H         1 UNK         0.0685 
     76 H76       -80.6693   29.0165  -73.6735 H         1 UNK         0.1434 
     77 H77       -77.1275   31.4344  -73.5254 H         1 UNK         0.1329 
     78 H78       -77.1249   27.5231  -71.7810 H         1 UNK         0.1335 
     79 H79       -75.3769   29.1454  -71.2111 H         1 UNK         0.0680 
     80 H80       -75.3364   30.7375  -71.9128 H         1 UNK         0.0680 
     81 H81       -74.5753   31.4183  -74.0112 H         1 UNK         0.1032 
     82 H82       -74.7191   30.3555  -75.3660 H         1 UNK         0.1032 
     83 H83       -72.6654   31.5062  -75.6834 H         1 UNK         0.0461 
     84 H84       -70.3487   31.3560  -72.3888 H         1 UNK         0.3453 
     85 H85       -70.5660   29.9387  -73.3859 H         1 UNK         0.3453 
     86 H86       -72.4654   28.7136  -75.0429 H         1 UNK         0.2984 
     87 H87       -70.8700   27.6577  -77.2089 H         1 UNK         0.0554 
     88 H88       -68.5228   26.9423  -76.6782 H         1 UNK         0.0847 
     89 H89       -68.3195   28.3700  -75.6637 H         1 UNK         0.0847 
     90 H90       -68.5751   28.5440  -77.3927 H         1 UNK         0.0847 
     91 H91       -71.3947   26.3189  -75.5293 H         1 UNK         0.3141 
     92 H92       -70.6821   25.2258  -73.1368 H         1 UNK         0.0743 
     93 H93       -70.0683   26.6313  -71.1790 H         1 UNK         0.0784 
     94 H94       -71.5869   27.5131  -71.2958 H         1 UNK         0.0784 
     95 H95       -71.5847   25.8029  -70.8664 H         1 UNK         0.0784 
     96 H96       -73.1253   26.9090  -73.4864 H         1 UNK         0.3213 
     97 H97       -74.9184   24.0905  -74.6784 H         1 UNK         0.0855 
     98 H98       -75.4101   26.0963  -72.4113 H         1 UNK         0.0814 
     99 H99       -75.6847   24.3631  -72.3618 H         1 UNK         0.0814 
    100 H100      -76.6928   25.3789  -73.3808 H         1 UNK         0.0814 
    101 H101      -75.6043   26.7492  -74.9909 H         1 UNK         0.3105 
    102 H102      -73.9092   28.2379  -77.0506 H         1 UNK         0.0547 
    103 H103      -73.3651   26.7173  -78.9472 H         1 UNK         0.0837 
    104 H104      -75.0225   26.1278  -78.9784 H         1 UNK         0.0837 
    105 H105      -74.6662   27.8031  -79.3954 H         1 UNK         0.0837 
    106 H106      -76.6022   27.0761  -76.7169 H         1 UNK         0.3020 
    107 H107      -78.0250   28.8575  -75.8058 H         1 UNK         0.1245 
    108 H108      -77.6531   31.3145  -76.2385 H         1 UNK         0.0781 
    109 H109      -78.3111   31.1254  -77.8419 H         1 UNK         0.0781 
    110 H110      -79.1294   32.3675  -74.4386 H         1 UNK         0.0836 
    111 H111      -80.6478   31.6573  -73.9546 H         1 UNK         0.0836 
    112 H112      -79.3267   28.9100  -78.3849 H         1 UNK         0.3022 
    113 H113      -80.8025   27.1236  -78.6989 H         1 UNK         0.0747 
    114 H114      -79.9580   25.6952  -80.6021 H         1 UNK         0.0793 
    115 H115      -78.9223   27.0921  -80.3578 H         1 UNK         0.0793 
    116 H116      -78.4082   25.5115  -79.7824 H         1 UNK         0.0793 
    117 H117      -79.7223   24.6932  -77.4336 H         1 UNK         0.3047 
    118 H118      -82.8196   23.6405  -76.5076 H         1 UNK         0.0822 
    119 H119      -82.6355   21.4159  -77.6055 H         1 UNK         0.0807 
    120 H120      -81.5284   22.0768  -78.8107 H         1 UNK         0.0807 
    121 H121      -83.2004   22.6157  -78.7537 H         1 UNK         0.0807 
    122 H122      -80.3919   22.1374  -76.6182 H         1 UNK         0.2946 
    123 H123      -79.4198   21.8175  -74.5046 H         1 UNK         0.1144 
    124 H124      -77.9333   22.8854  -76.1989 H         1 UNK         0.0793 
    125 H125      -77.0910   22.7496  -74.6671 H         1 UNK         0.0793 
    126 H126      -77.7473   24.3043  -75.1845 H         1 UNK         0.0793 
    127 H127      -78.3676   23.8299  -72.7791 H         1 UNK         0.2896 
@<TRIPOS>BOND
     1    1    2 1    
     2    1   67 1    
     3    1   68 1    
     4    1   69 1    
     5    2    3 2    
     6    2    4 am   BACKBONE|DICT|INTERRES
     7    4    5 1    
     8    4   70 1    
     9    5    6 1    
    10    5   65 1    
    11    5   71 1    
    12    6    7 1    
    13    6   72 1    
    14    6   73 1    
    15    7    8 1    
    16    8    9 1    
    17    8   74 1    
    18    8   75 1    
    19    9   10 ar   
    20    9   14 ar   
    21   10   11 ar   
    22   10   76 1    
    23   11   12 ar   
    24   11   48 1    
    25   12   13 ar   
    26   12   77 1    
    27   13   14 ar   
    28   13   15 1    
    29   14   78 1    
    30   15   16 1    
    31   15   79 1    
    32   15   80 1    
    33   16   17 1    
    34   17   18 1    
    35   17   81 1    
    36   17   82 1    
    37   18   19 1    
    38   18   22 1    
    39   18   83 1    
    40   19   20 am   BACKBONE|DICT|INTERRES
    41   19   21 2    
    42   20   84 1    
    43   20   85 1    
    44   22   23 am   BACKBONE|DICT|INTERRES
    45   22   86 1    
    46   23   24 2    
    47   23   25 1    
    48   25   26 1    
    49   25   27 1    
    50   25   87 1    
    51   26   88 1    
    52   26   89 1    
    53   26   90 1    
    54   27   28 am   BACKBONE|DICT|INTERRES
    55   27   91 1    
    56   28   29 2    
    57   28   30 1    
    58   30   31 1    
    59   30   32 1    
    60   30   92 1    
    61   31   93 1    
    62   31   94 1    
    63   31   95 1    
    64   32   33 am   BACKBONE|DICT|INTERRES
    65   32   96 1    
    66   33   34 2    
    67   33   35 1    
    68   35   36 1    
    69   35   37 1    
    70   35   97 1    
    71   36   98 1    
    72   36   99 1    
    73   36  100 1    
    74   37   38 am   BACKBONE|DICT|INTERRES
    75   37  101 1    
    76   38   39 2    
    77   38   40 1    
    78   40   41 1    
    79   40   42 1    
    80   40  102 1    
    81   41  103 1    
    82   41  104 1    
    83   41  105 1    
    84   42   43 am   BACKBONE|DICT|INTERRES
    85   42  106 1    
    86   43   44 2    
    87   43   45 1    
    88   45   46 1    
    89   45   49 1    
    90   45  107 1    
    91   46   47 1    
    92   46  108 1    
    93   46  109 1    
    94   47   48 1    
    95   48  110 1    
    96   48  111 1    
    97   49   50 am   BACKBONE|DICT|INTERRES
    98   49  112 1    
    99   50   51 2    
   100   50   52 1    
   101   52   53 1    
   102   52   54 1    
   103   52  113 1    
   104   53  114 1    
   105   53  115 1    
   106   53  116 1    
   107   54   55 am   BACKBONE|DICT|INTERRES
   108   54  117 1    
   109   55   56 2    
   110   55   57 1    
   111   57   58 1    
   112   57   59 1    
   113   57  118 1    
   114   58  119 1    
   115   58  120 1    
   116   58  121 1    
   117   59   60 am   BACKBONE|DICT|INTERRES
   118   59  122 1    
   119   60   61 2    
   120   60   62 1    
   121   62   63 1    
   122   62   64 1    
   123   62  123 1    
   124   63  124 1    
   125   63  125 1    
   126   63  126 1    
   127   64   65 am   BACKBONE|DICT|INTERRES
   128   64  127 1    
   129   65   66 2    
@<TRIPOS>SUBSTRUCTURE
     1 UNK         1 GROUP             0       ****    0 ROOT    
