@<TRIPOS>MOLECULE
3R135
127   129    1
SMALL
USER_CHARGES


@<TRIPOS>ATOM
      1 CA        -82.9068   21.1578  -71.2147 C.3       0 UNK        -0.1998 
      2 C         -82.5925   22.6459  -71.2158 C.2       0 UNK         0.4909 
      3 O         -83.5101   23.4675  -71.1942 O.2       0 UNK        -0.5240 
      4 N         -81.3021   23.0043  -71.2480 N.am      1 UNK        -0.4739 
      5 CA        -80.8074   24.3841  -71.2885 C.3       1 UNK         0.0864 
      6 C6        -79.3705   24.4723  -70.7100 C.3       11 UNK        -0.0881 
      7 S7        -78.8512   26.1883  -70.3513 S.3       11 UNK        -0.2682 
      8 C8        -77.5131   26.4183  -71.5687 C.3       11 UNK         0.0289 
      9 C9        -77.5304   27.8009  -72.2040 C.ar      11 UNK        -0.0687 
     10 C10       -78.6528   28.2310  -72.9169 C.ar      11 UNK        -0.0823 
     11 C11       -78.6432   29.4504  -73.6003 C.ar      11 UNK        -0.0830 
     12 C12       -77.5025   30.2567  -73.5477 C.ar      11 UNK        -0.1021 
     13 C13       -76.3748   29.8391  -72.8340 C.ar      11 UNK        -0.0753 
     14 C14       -76.3968   28.6169  -72.1559 C.ar      11 UNK        -0.0933 
     15 C15       -75.1097   30.6784  -72.8458 C.3       11 UNK         0.0166 
     16 S16       -74.0377   30.1482  -74.2103 S.3       11 UNK        -0.2615 
     17 C17       -72.6980   31.3784  -74.1058 C.3       11 UNK        -0.0865 
     18 CA        -71.5235   31.0431  -75.0710 C.3       10 UNK         0.0862 
     19 C         -70.4925   32.2067  -75.2034 C.2       10 UNK         0.5551 
     20 N         -69.2244   31.9319  -75.4845 N.am      10 UNK        -0.7319 
     21 O         -70.8478   33.3771  -75.0844 O.2       10 UNK        -0.5018 
     22 N         -70.9360   29.7134  -74.8154 N.am      10 UNK        -0.4509 
     23 C         -70.2520   29.3580  -73.7185 C.2       10 UNK         0.4899 
     24 O         -70.0107   30.1210  -72.7809 O.2       10 UNK        -0.4839 
     25 CA        -69.7467   27.9028  -73.6750 C.3       9 UNK         0.0222 
     26 CB        -68.9624   27.5760  -72.3861 C.3       9 UNK        -0.1966 
     27 N         -70.8127   26.9182  -73.8883 N.am      9 UNK        -0.4218 
     28 C         -71.9388   26.7453  -73.1806 C.2       9 UNK         0.5020 
     29 O         -72.2538   27.4341  -72.2085 O.2       9 UNK        -0.5274 
     30 CA        -72.8525   25.5816  -73.6276 C.3       8 UNK         0.0270 
     31 CB        -74.1616   25.5138  -72.8206 C.3       8 UNK        -0.1976 
     32 N         -73.1809   25.6200  -75.0570 N.am      8 UNK        -0.4313 
     33 C         -72.3478   25.3121  -76.0604 C.2       8 UNK         0.5041 
     34 O         -71.1876   24.9341  -75.8878 O.2       8 UNK        -0.5577 
     35 CA        -72.8689   25.5042  -77.4934 C.3       7 UNK         0.0284 
     36 CB        -73.7170   24.2992  -77.9310 C.3       7 UNK        -0.1958 
     37 N         -73.6399   26.7369  -77.6655 N.am      7 UNK        -0.4454 
     38 C         -73.1783   27.9835  -77.4965 C.2       7 UNK         0.5089 
     39 O         -72.0173   28.2478  -77.1788 O.2       7 UNK        -0.5125 
     40 CA        -74.1830   29.1359  -77.6922 C.3       6 UNK         0.0408 
     41 CB        -74.3084   29.5315  -79.1761 C.3       6 UNK        -0.1791 
     42 N         -75.4896   28.8919  -77.0608 N.am      6 UNK        -0.4762 
     43 C         -76.4368   28.0136  -77.4186 C.2       6 UNK         0.5007 
     44 O         -76.3844   27.3263  -78.4417 O.2       6 UNK        -0.5032 
     45 CA        -77.6148   27.8333  -76.4397 C.3       5 UNK         0.0783 
     46 C46       -78.7939   28.7550  -76.8421 C.3       11 UNK        -0.0857 
     47 S47       -80.2328   28.6369  -75.7291 S.3       11 UNK        -0.2512 
     48 C48       -79.8455   29.8651  -74.4368 C.3       11 UNK         0.0225 
     49 N         -77.9877   26.4158  -76.3159 N.am      5 UNK        -0.4615 
     50 C         -77.1518   25.4685  -75.8634 C.2       4 UNK         0.5053 
     51 O         -76.0150   25.7193  -75.4585 O.2       4 UNK        -0.5105 
     52 CA        -77.6223   24.0044  -75.8849 C.3       4 UNK         0.0263 
     53 CB        -77.0737   23.2105  -74.6843 C.3       4 UNK        -0.1981 
     54 N         -79.0805   23.8734  -75.9058 N.am      4 UNK        -0.4224 
     55 C         -79.7809   23.2259  -76.8494 C.2       3 UNK         0.4895 
     56 O         -79.2782   22.7699  -77.8773 O.2       3 UNK        -0.5091 
     57 CA        -81.2895   23.0059  -76.6135 C.3       3 UNK         0.0250 
     58 CB        -81.5671   21.5317  -76.2732 C.3       3 UNK        -0.1996 
     59 N         -81.8481   23.8421  -75.5512 N.am      3 UNK        -0.4254 
     60 C         -82.1106   25.1492  -75.6686 C.2       2 UNK         0.5004 
     61 O         -81.9990   25.7707  -76.7250 O.2       2 UNK        -0.5226 
     62 CA        -82.5575   25.8927  -74.3945 C.3       2 UNK         0.0269 
     63 CB        -84.0784   26.1144  -74.4109 C.3       2 UNK        -0.1926 
     64 N         -82.1835   25.2545  -73.1241 N.am      2 UNK        -0.4687 
     65 C         -80.9416   24.9516  -72.7192 C.2       1 UNK         0.5165 
     66 O         -79.9508   25.0573  -73.4427 O.2       1 UNK        -0.5079 
     67 H67       -83.5008   20.8995  -72.0909 H         1 UNK         0.0900 
     68 H68       -82.0026   20.5495  -71.2260 H         1 UNK         0.0900 
     69 H69       -83.4798   20.8967  -70.3254 H         1 UNK         0.0900 
     70 H70       -80.5927   22.2857  -71.2870 H         1 UNK         0.2959 
     71 H71       -81.4488   24.9905  -70.6441 H         1 UNK         0.1079 
     72 H72       -78.6513   23.9702  -71.3595 H         1 UNK         0.0837 
     73 H73       -79.3289   23.9330  -69.7623 H         1 UNK         0.0837 
     74 H74       -76.5601   26.2256  -71.0742 H         1 UNK         0.0685 
     75 H75       -77.5913   25.6884  -72.3743 H         1 UNK         0.0685 
     76 H76       -79.5233   27.5936  -72.9772 H         1 UNK         0.1434 
     77 H77       -77.4772   31.1936  -74.0875 H         1 UNK         0.1329 
     78 H78       -75.5128   28.2853  -71.6281 H         1 UNK         0.1335 
     79 H79       -74.5755   30.5760  -71.8998 H         1 UNK         0.0680 
     80 H80       -75.3550   31.7357  -72.9582 H         1 UNK         0.0680 
     81 H81       -72.3444   31.4431  -73.0756 H         1 UNK         0.1032 
     82 H82       -73.1287   32.3527  -74.3439 H         1 UNK         0.1032 
     83 H83       -71.9492   30.9704  -76.0712 H         1 UNK         0.0461 
     84 H84       -68.9239   30.9772  -75.5977 H         1 UNK         0.3453 
     85 H85       -68.5632   32.6865  -75.5799 H         1 UNK         0.3453 
     86 H86       -71.1078   29.0244  -75.5409 H         1 UNK         0.2984 
     87 H87       -69.0582   27.7926  -74.5140 H         1 UNK         0.0554 
     88 H88       -68.1092   28.2450  -72.2674 H         1 UNK         0.0847 
     89 H89       -68.5740   26.5578  -72.4046 H         1 UNK         0.0847 
     90 H90       -69.5840   27.6815  -71.4961 H         1 UNK         0.0847 
     91 H91       -70.6847   26.2846  -74.6756 H         1 UNK         0.3141 
     92 H92       -72.3006   24.6601  -73.4311 H         1 UNK         0.0743 
     93 H93       -74.7830   26.3894  -73.0072 H         1 UNK         0.0784 
     94 H94       -74.7444   24.6312  -73.0821 H         1 UNK         0.0784 
     95 H95       -73.9679   25.4658  -71.7483 H         1 UNK         0.0784 
     96 H96       -74.1385   25.8808  -75.2869 H         1 UNK         0.3213 
     97 H97       -72.0006   25.5682  -78.1526 H         1 UNK         0.0855 
     98 H98       -74.6138   24.1911  -77.3204 H         1 UNK         0.0814 
     99 H99       -73.1497   23.3716  -77.8427 H         1 UNK         0.0814 
    100 H100      -74.0288   24.3896  -78.9716 H         1 UNK         0.0814 
    101 H101      -74.6151   26.6419  -77.9323 H         1 UNK         0.3105 
    102 H102      -73.7721   30.0011  -77.1730 H         1 UNK         0.0547 
    103 H103      -73.3424   29.8471  -79.5722 H         1 UNK         0.0837 
    104 H104      -74.6530   28.7054  -79.7981 H         1 UNK         0.0837 
    105 H105      -74.9998   30.3635  -79.3083 H         1 UNK         0.0837 
    106 H106      -75.6069   29.3729  -76.1777 H         1 UNK         0.3020 
    107 H107      -77.2571   28.1343  -75.4548 H         1 UNK         0.1245 
    108 H108      -78.4718   29.7975  -76.8803 H         1 UNK         0.0781 
    109 H109      -79.1373   28.5084  -77.8486 H         1 UNK         0.0781 
    110 H110      -80.7109   29.9717  -73.7814 H         1 UNK         0.0836 
    111 H111      -79.6885   30.8402  -74.9007 H         1 UNK         0.0836 
    112 H112      -78.9070   26.1552  -76.6406 H         1 UNK         0.3022 
    113 H113      -77.1907   23.5726  -76.7897 H         1 UNK         0.0747 
    114 H114      -77.3974   22.1702  -74.7165 H         1 UNK         0.0793 
    115 H115      -75.9831   23.2059  -74.6791 H         1 UNK         0.0793 
    116 H116      -77.4069   23.6358  -73.7373 H         1 UNK         0.0793 
    117 H117      -79.5615   24.2583  -75.0947 H         1 UNK         0.3047 
    118 H118      -81.8026   23.2436  -77.5480 H         1 UNK         0.0822 
    119 H119      -82.6356   21.3423  -76.1682 H         1 UNK         0.0807 
    120 H120      -81.0788   21.2324  -75.3449 H         1 UNK         0.0807 
    121 H121      -81.2001   20.8724  -77.0613 H         1 UNK         0.0807 
    122 H122      -81.9704   23.4140  -74.6454 H         1 UNK         0.2946 
    123 H123      -82.0724   26.8692  -74.4136 H         1 UNK         0.1144 
    124 H124      -84.3915   26.6149  -75.3284 H         1 UNK         0.0793 
    125 H125      -84.3976   26.7415  -73.5782 H         1 UNK         0.0793 
    126 H126      -84.6231   25.1713  -74.3505 H         1 UNK         0.0793 
    127 H127      -82.9417   25.0303  -72.4884 H         1 UNK         0.2896 
@<TRIPOS>BOND
     1    1    2 1    
     2    1   67 1    
     3    1   68 1    
     4    1   69 1    
     5    2    3 2    
     6    2    4 am   BACKBONE|DICT|INTERRES
     7    4    5 1    
     8    4   70 1    
     9    5    6 1    
    10    5   65 1    
    11    5   71 1    
    12    6    7 1    
    13    6   72 1    
    14    6   73 1    
    15    7    8 1    
    16    8    9 1    
    17    8   74 1    
    18    8   75 1    
    19    9   10 ar   
    20    9   14 ar   
    21   10   11 ar   
    22   10   76 1    
    23   11   12 ar   
    24   11   48 1    
    25   12   13 ar   
    26   12   77 1    
    27   13   14 ar   
    28   13   15 1    
    29   14   78 1    
    30   15   16 1    
    31   15   79 1    
    32   15   80 1    
    33   16   17 1    
    34   17   18 1    
    35   17   81 1    
    36   17   82 1    
    37   18   19 1    
    38   18   22 1    
    39   18   83 1    
    40   19   20 am   BACKBONE|DICT|INTERRES
    41   19   21 2    
    42   20   84 1    
    43   20   85 1    
    44   22   23 am   BACKBONE|DICT|INTERRES
    45   22   86 1    
    46   23   24 2    
    47   23   25 1    
    48   25   26 1    
    49   25   27 1    
    50   25   87 1    
    51   26   88 1    
    52   26   89 1    
    53   26   90 1    
    54   27   28 am   BACKBONE|DICT|INTERRES
    55   27   91 1    
    56   28   29 2    
    57   28   30 1    
    58   30   31 1    
    59   30   32 1    
    60   30   92 1    
    61   31   93 1    
    62   31   94 1    
    63   31   95 1    
    64   32   33 am   BACKBONE|DICT|INTERRES
    65   32   96 1    
    66   33   34 2    
    67   33   35 1    
    68   35   36 1    
    69   35   37 1    
    70   35   97 1    
    71   36   98 1    
    72   36   99 1    
    73   36  100 1    
    74   37   38 am   BACKBONE|DICT|INTERRES
    75   37  101 1    
    76   38   39 2    
    77   38   40 1    
    78   40   41 1    
    79   40   42 1    
    80   40  102 1    
    81   41  103 1    
    82   41  104 1    
    83   41  105 1    
    84   42   43 am   BACKBONE|DICT|INTERRES
    85   42  106 1    
    86   43   44 2    
    87   43   45 1    
    88   45   46 1    
    89   45   49 1    
    90   45  107 1    
    91   46   47 1    
    92   46  108 1    
    93   46  109 1    
    94   47   48 1    
    95   48  110 1    
    96   48  111 1    
    97   49   50 am   BACKBONE|DICT|INTERRES
    98   49  112 1    
    99   50   51 2    
   100   50   52 1    
   101   52   53 1    
   102   52   54 1    
   103   52  113 1    
   104   53  114 1    
   105   53  115 1    
   106   53  116 1    
   107   54   55 am   BACKBONE|DICT|INTERRES
   108   54  117 1    
   109   55   56 2    
   110   55   57 1    
   111   57   58 1    
   112   57   59 1    
   113   57  118 1    
   114   58  119 1    
   115   58  120 1    
   116   58  121 1    
   117   59   60 am   BACKBONE|DICT|INTERRES
   118   59  122 1    
   119   60   61 2    
   120   60   62 1    
   121   62   63 1    
   122   62   64 1    
   123   62  123 1    
   124   63  124 1    
   125   63  125 1    
   126   63  126 1    
   127   64   65 am   BACKBONE|DICT|INTERRES
   128   64  127 1    
   129   65   66 2    
@<TRIPOS>SUBSTRUCTURE
     1 UNK         1 GROUP             0       ****    0 ROOT    
