@<TRIPOS>MOLECULE
3R135
127   129    1
SMALL
USER_CHARGES


@<TRIPOS>ATOM
      1 CA        -82.9112   29.9672  -73.4344 C.3       0 UNK        -0.1998 
      2 C         -81.8945   28.8619  -73.6712 C.2       0 UNK         0.4909 
      3 O         -81.0223   29.0012  -74.5270 O.2       0 UNK        -0.5240 
      4 N         -82.0038   27.7502  -72.9342 N.am      1 UNK        -0.4739 
      5 CA        -81.0847   26.6005  -72.9570 C.3       1 UNK         0.0864 
      6 C6        -81.0489   25.8723  -71.5878 C.3       11 UNK        -0.0881 
      7 S7        -80.6364   26.9875  -70.1944 S.3       11 UNK        -0.2682 
      8 C8        -78.8401   26.7212  -69.9668 C.3       11 UNK         0.0289 
      9 C9        -77.9379   27.8422  -70.4921 C.ar      11 UNK        -0.0687 
     10 C10       -78.2912   28.6439  -71.5851 C.ar      11 UNK        -0.0823 
     11 C11       -77.4141   29.6086  -72.0857 C.ar      11 UNK        -0.0830 
     12 C12       -76.1930   29.8207  -71.4435 C.ar      11 UNK        -0.1021 
     13 C13       -75.8299   29.0503  -70.3357 C.ar      11 UNK        -0.0753 
     14 C14       -76.6983   28.0543  -69.8769 C.ar      11 UNK        -0.0933 
     15 C15       -74.5003   29.2977  -69.6388 C.3       11 UNK         0.0166 
     16 S16       -73.1193   28.6226  -70.6114 S.3       11 UNK        -0.2615 
     17 C17       -72.0174   30.0739  -70.7557 C.3       11 UNK        -0.0865 
     18 CA        -72.4883   31.1430  -71.7896 C.3       10 UNK         0.0862 
     19 C         -71.5264   32.3689  -71.8519 C.2       10 UNK         0.5551 
     20 N         -71.3312   32.9984  -73.0043 N.am      10 UNK        -0.7319 
     21 O         -70.9724   32.7786  -70.8345 O.2       10 UNK        -0.5018 
     22 N         -72.8605   30.5784  -73.1013 N.am      10 UNK        -0.4509 
     23 C         -72.0555   29.8996  -73.9258 C.2       10 UNK         0.4899 
     24 O         -70.8553   29.6992  -73.7241 O.2       10 UNK        -0.4839 
     25 CA        -72.7048   29.3873  -75.2206 C.3       9 UNK         0.0222 
     26 CB        -72.4536   30.3651  -76.3795 C.3       9 UNK        -0.1966 
     27 N         -72.1939   28.0647  -75.5808 N.am      9 UNK        -0.4218 
     28 C         -72.4958   26.9393  -74.9222 C.2       9 UNK         0.5020 
     29 O         -73.2893   26.8821  -73.9821 O.2       9 UNK        -0.5274 
     30 CA        -71.8069   25.6614  -75.4073 C.3       8 UNK         0.0270 
     31 CB        -71.2682   24.8160  -74.2378 C.3       8 UNK        -0.1976 
     32 N         -72.7675   24.8797  -76.1795 N.am      8 UNK        -0.4313 
     33 C         -72.4577   24.1457  -77.2547 C.2       8 UNK         0.5041 
     34 O         -71.3171   24.0451  -77.7107 O.2       8 UNK        -0.5577 
     35 CA        -73.6047   23.3903  -77.9442 C.3       7 UNK         0.0284 
     36 CB        -73.9689   22.1212  -77.1564 C.3       7 UNK        -0.1958 
     37 N         -74.7968   24.2178  -78.1394 N.am      7 UNK        -0.4454 
     38 C         -74.8837   25.2306  -79.0148 C.2       7 UNK         0.5089 
     39 O         -73.9759   25.5542  -79.7815 O.2       7 UNK        -0.5125 
     40 CA        -76.2041   26.0235  -79.0397 C.3       6 UNK         0.0408 
     41 CB        -77.2644   25.2919  -79.8765 C.3       6 UNK        -0.1791 
     42 N         -76.7267   26.2896  -77.6979 N.am      6 UNK        -0.4762 
     43 C         -76.1222   27.0839  -76.7995 C.2       6 UNK         0.5007 
     44 O         -75.1198   27.7496  -77.0551 O.2       6 UNK        -0.5032 
     45 CA        -76.7121   27.1104  -75.3733 C.3       5 UNK         0.0783 
     46 C46       -77.7280   28.2674  -75.1858 C.3       11 UNK        -0.0857 
     47 S47       -76.9124   29.8607  -74.8131 S.3       11 UNK        -0.2512 
     48 C48       -77.7875   30.4274  -73.3143 C.3       11 UNK         0.0225 
     49 N         -77.2847   25.8102  -75.0047 N.am      5 UNK        -0.4615 
     50 C         -76.5589   24.7078  -74.7679 C.2       4 UNK         0.5053 
     51 O         -75.3329   24.6576  -74.8532 O.2       4 UNK        -0.5105 
     52 CA        -77.3401   23.4301  -74.4249 C.3       4 UNK         0.0263 
     53 CB        -77.8838   23.4939  -72.9894 C.3       4 UNK        -0.1981 
     54 N         -78.4330   23.1757  -75.3669 N.am      4 UNK        -0.4224 
     55 C         -78.2453   22.8789  -76.6625 C.2       3 UNK         0.4895 
     56 O         -77.1366   22.7740  -77.1839 O.2       3 UNK        -0.5091 
     57 CA        -79.4935   22.7003  -77.5438 C.3       3 UNK         0.0250 
     58 CB        -79.9360   21.2287  -77.5524 C.3       3 UNK        -0.1996 
     59 N         -80.6257   23.5463  -77.1617 N.am      3 UNK        -0.4254 
     60 C         -80.6051   24.8829  -77.0677 C.2       2 UNK         0.5004 
     61 O         -79.6057   25.5727  -77.2829 O.2       2 UNK        -0.5226 
     62 CA        -81.9007   25.5728  -76.6059 C.3       2 UNK         0.0269 
     63 CB        -83.1450   24.6549  -76.5750 C.3       2 UNK        -0.1926 
     64 N         -81.7044   26.2198  -75.3062 N.am      2 UNK        -0.4687 
     65 C         -81.3194   25.6509  -74.1538 C.2       1 UNK         0.5165 
     66 O         -81.1124   24.4421  -74.0280 O.2       1 UNK        -0.5079 
     67 H67       -83.6225   29.7055  -72.6512 H         1 UNK         0.0900 
     68 H68       -82.4032   30.8846  -73.1386 H         1 UNK         0.0900 
     69 H69       -83.4694   30.1658  -74.3488 H         1 UNK         0.0900 
     70 H70       -82.7540   27.6822  -72.2608 H         1 UNK         0.2959 
     71 H71       -80.0782   26.9654  -73.1441 H         1 UNK         0.1079 
     72 H72       -80.3476   25.0381  -71.5966 H         1 UNK         0.0837 
     73 H73       -82.0242   25.4282  -71.3806 H         1 UNK         0.0837 
     74 H74       -78.6704   26.5994  -68.8958 H         1 UNK         0.0685 
     75 H75       -78.5336   25.7814  -70.4267 H         1 UNK         0.0685 
     76 H76       -79.2515   28.5318  -72.0563 H         1 UNK         0.1434 
     77 H77       -75.5208   30.5803  -71.8136 H         1 UNK         0.1329 
     78 H78       -76.4084   27.4438  -69.0325 H         1 UNK         0.1335 
     79 H79       -74.4911   28.8393  -68.6488 H         1 UNK         0.0680 
     80 H80       -74.3726   30.3689  -69.4777 H         1 UNK         0.0680 
     81 H81       -71.0242   29.7095  -71.0230 H         1 UNK         0.1032 
     82 H82       -71.9085   30.5200  -69.7654 H         1 UNK         0.1032 
     83 H83       -73.4147   31.5653  -71.4012 H         1 UNK         0.0461 
     84 H84       -71.7849   32.6767  -73.8436 H         1 UNK         0.3453 
     85 H85       -70.7167   33.7967  -73.0342 H         1 UNK         0.3453 
     86 H86       -73.8234   30.7084  -73.3742 H         1 UNK         0.2984 
     87 H87       -73.7835   29.3041  -75.0690 H         1 UNK         0.0554 
     88 H88       -71.3891   30.4875  -76.5840 H         1 UNK         0.0847 
     89 H89       -72.8587   31.3520  -76.1526 H         1 UNK         0.0847 
     90 H90       -72.9368   30.0228  -77.2952 H         1 UNK         0.0847 
     91 H91       -71.5232   28.0274  -76.3341 H         1 UNK         0.3141 
     92 H92       -70.9624   25.9474  -76.0383 H         1 UNK         0.0743 
     93 H93       -72.0738   24.4615  -73.5932 H         1 UNK         0.0784 
     94 H94       -70.7206   23.9452  -74.5982 H         1 UNK         0.0784 
     95 H95       -70.5849   25.3985  -73.6186 H         1 UNK         0.0784 
     96 H96       -73.7284   24.9000  -75.8372 H         1 UNK         0.3213 
     97 H97       -73.2487   23.0800  -78.9291 H         1 UNK         0.0855 
     98 H98       -74.3857   22.3580  -76.1767 H         1 UNK         0.0814 
     99 H99       -73.0908   21.4943  -76.9960 H         1 UNK         0.0814 
    100 H100      -74.7021   21.5195  -77.6937 H         1 UNK         0.0814 
    101 H101      -75.6170   23.9678  -77.5945 H         1 UNK         0.3105 
    102 H102      -76.0074   26.9864  -79.5158 H         1 UNK         0.0547 
    103 H103      -76.9252   25.1625  -80.9050 H         1 UNK         0.0837 
    104 H104      -77.4780   24.3004  -79.4794 H         1 UNK         0.0837 
    105 H105      -78.2007   25.8494  -79.9103 H         1 UNK         0.0837 
    106 H106      -77.5943   25.8294  -77.4389 H         1 UNK         0.3020 
    107 H107      -75.8747   27.2809  -74.6911 H         1 UNK         0.1245 
    108 H108      -78.4000   28.0373  -74.3614 H         1 UNK         0.0781 
    109 H109      -78.3738   28.3848  -76.0586 H         1 UNK         0.0781 
    110 H110      -78.8639   30.4012  -73.4909 H         1 UNK         0.0836 
    111 H111      -77.5372   31.4744  -73.1375 H         1 UNK         0.0836 
    112 H112      -78.2906   25.7380  -75.0095 H         1 UNK         0.3022 
    113 H113      -76.6459   22.5888  -74.4856 H         1 UNK         0.0747 
    114 H114      -78.4185   22.5818  -72.7238 H         1 UNK         0.0793 
    115 H115      -77.0714   23.6157  -72.2715 H         1 UNK         0.0793 
    116 H116      -78.5631   24.3340  -72.8549 H         1 UNK         0.0793 
    117 H117      -79.3792   23.2740  -75.0190 H         1 UNK         0.3047 
    118 H118      -79.2157   22.9759  -78.5624 H         1 UNK         0.0822 
    119 H119      -80.7544   21.0633  -78.2534 H         1 UNK         0.0807 
    120 H120      -80.2652   20.8995  -76.5659 H         1 UNK         0.0807 
    121 H121      -79.1157   20.5767  -77.8566 H         1 UNK         0.0807 
    122 H122      -81.4862   23.0712  -76.9308 H         1 UNK         0.2946 
    123 H123      -82.0911   26.3675  -77.3294 H         1 UNK         0.1144 
    124 H124      -83.3296   24.2063  -77.5522 H         1 UNK         0.0793 
    125 H125      -84.0381   25.2236  -76.3155 H         1 UNK         0.0793 
    126 H126      -83.0522   23.8476  -75.8478 H         1 UNK         0.0793 
    127 H127      -81.7497   27.2333  -75.3099 H         1 UNK         0.2896 
@<TRIPOS>BOND
     1    1    2 1    
     2    1   67 1    
     3    1   68 1    
     4    1   69 1    
     5    2    3 2    
     6    2    4 am   BACKBONE|DICT|INTERRES
     7    4    5 1    
     8    4   70 1    
     9    5    6 1    
    10    5   65 1    
    11    5   71 1    
    12    6    7 1    
    13    6   72 1    
    14    6   73 1    
    15    7    8 1    
    16    8    9 1    
    17    8   74 1    
    18    8   75 1    
    19    9   10 ar   
    20    9   14 ar   
    21   10   11 ar   
    22   10   76 1    
    23   11   12 ar   
    24   11   48 1    
    25   12   13 ar   
    26   12   77 1    
    27   13   14 ar   
    28   13   15 1    
    29   14   78 1    
    30   15   16 1    
    31   15   79 1    
    32   15   80 1    
    33   16   17 1    
    34   17   18 1    
    35   17   81 1    
    36   17   82 1    
    37   18   19 1    
    38   18   22 1    
    39   18   83 1    
    40   19   20 am   BACKBONE|DICT|INTERRES
    41   19   21 2    
    42   20   84 1    
    43   20   85 1    
    44   22   23 am   BACKBONE|DICT|INTERRES
    45   22   86 1    
    46   23   24 2    
    47   23   25 1    
    48   25   26 1    
    49   25   27 1    
    50   25   87 1    
    51   26   88 1    
    52   26   89 1    
    53   26   90 1    
    54   27   28 am   BACKBONE|DICT|INTERRES
    55   27   91 1    
    56   28   29 2    
    57   28   30 1    
    58   30   31 1    
    59   30   32 1    
    60   30   92 1    
    61   31   93 1    
    62   31   94 1    
    63   31   95 1    
    64   32   33 am   BACKBONE|DICT|INTERRES
    65   32   96 1    
    66   33   34 2    
    67   33   35 1    
    68   35   36 1    
    69   35   37 1    
    70   35   97 1    
    71   36   98 1    
    72   36   99 1    
    73   36  100 1    
    74   37   38 am   BACKBONE|DICT|INTERRES
    75   37  101 1    
    76   38   39 2    
    77   38   40 1    
    78   40   41 1    
    79   40   42 1    
    80   40  102 1    
    81   41  103 1    
    82   41  104 1    
    83   41  105 1    
    84   42   43 am   BACKBONE|DICT|INTERRES
    85   42  106 1    
    86   43   44 2    
    87   43   45 1    
    88   45   46 1    
    89   45   49 1    
    90   45  107 1    
    91   46   47 1    
    92   46  108 1    
    93   46  109 1    
    94   47   48 1    
    95   48  110 1    
    96   48  111 1    
    97   49   50 am   BACKBONE|DICT|INTERRES
    98   49  112 1    
    99   50   51 2    
   100   50   52 1    
   101   52   53 1    
   102   52   54 1    
   103   52  113 1    
   104   53  114 1    
   105   53  115 1    
   106   53  116 1    
   107   54   55 am   BACKBONE|DICT|INTERRES
   108   54  117 1    
   109   55   56 2    
   110   55   57 1    
   111   57   58 1    
   112   57   59 1    
   113   57  118 1    
   114   58  119 1    
   115   58  120 1    
   116   58  121 1    
   117   59   60 am   BACKBONE|DICT|INTERRES
   118   59  122 1    
   119   60   61 2    
   120   60   62 1    
   121   62   63 1    
   122   62   64 1    
   123   62  123 1    
   124   63  124 1    
   125   63  125 1    
   126   63  126 1    
   127   64   65 am   BACKBONE|DICT|INTERRES
   128   64  127 1    
   129   65   66 2    
@<TRIPOS>SUBSTRUCTURE
     1 UNK         1 GROUP             0       ****    0 ROOT    
