@<TRIPOS>MOLECULE
3R135
127   129    1
SMALL
USER_CHARGES


@<TRIPOS>ATOM
      1 CA        -83.0461   26.8540  -76.6064 C.3       0 UNK        -0.1998 
      2 C         -81.8099   27.6731  -76.2698 C.2       0 UNK         0.4909 
      3 O         -81.0000   27.9519  -77.1547 O.2       0 UNK        -0.5240 
      4 N         -81.6477   28.0500  -74.9948 N.am      1 UNK        -0.4739 
      5 CA        -80.4910   28.7817  -74.4668 C.3       1 UNK         0.0864 
      6 C6        -80.6997   29.2335  -72.9973 C.3       11 UNK        -0.0881 
      7 S7        -81.2703   27.9105  -71.8698 S.3       11 UNK        -0.2682 
      8 C8        -80.6259   28.4830  -70.2670 C.3       11 UNK         0.0289 
      9 C9        -79.1095   28.3792  -70.1748 C.ar      11 UNK        -0.0687 
     10 C10       -78.4920   27.1254  -70.1264 C.ar      11 UNK        -0.0823 
     11 C11       -77.1034   27.0202  -69.9962 C.ar      11 UNK        -0.0830 
     12 C12       -76.3322   28.1841  -69.9228 C.ar      11 UNK        -0.1021 
     13 C13       -76.9366   29.4443  -69.9774 C.ar      11 UNK        -0.0753 
     14 C14       -78.3264   29.5350  -70.0983 C.ar      11 UNK        -0.0933 
     15 C15       -76.0872   30.7042  -69.8677 C.3       11 UNK         0.0166 
     16 S16       -76.2000   31.7947  -71.3269 S.3       11 UNK        -0.2615 
     17 C17       -75.7840   30.6930  -72.7213 C.3       11 UNK        -0.0865 
     18 CA        -74.2555   30.5779  -72.9969 C.3       10 UNK         0.0862 
     19 C         -73.6518   29.3755  -72.2164 C.2       10 UNK         0.5551 
     20 N         -73.8128   28.1581  -72.7148 N.am      10 UNK        -0.7319 
     21 O         -73.0395   29.5507  -71.1663 O.2       10 UNK        -0.5018 
     22 N         -73.9855   30.5969  -74.4485 N.am      10 UNK        -0.4509 
     23 C         -72.8144   30.3745  -75.0609 C.2       10 UNK         0.4899 
     24 O         -71.7643   30.0688  -74.4934 O.2       10 UNK        -0.4839 
     25 CA        -72.8046   30.5497  -76.5824 C.3       9 UNK         0.0222 
     26 CB        -72.1048   31.8646  -76.9771 C.3       9 UNK        -0.1966 
     27 N         -72.1218   29.3996  -77.1656 N.am      9 UNK        -0.4218 
     28 C         -72.1774   29.0201  -78.4484 C.2       9 UNK         0.5020 
     29 O         -72.7831   29.6384  -79.3248 O.2       9 UNK        -0.5274 
     30 CA        -71.4424   27.7176  -78.8152 C.3       8 UNK         0.0270 
     31 CB        -69.9562   27.9942  -79.0971 C.3       8 UNK        -0.1976 
     32 N         -71.5651   26.6839  -77.7812 N.am      8 UNK        -0.4313 
     33 C         -72.7075   26.0496  -77.4849 C.2       8 UNK         0.5041 
     34 O         -73.7655   26.2277  -78.0925 O.2       8 UNK        -0.5577 
     35 CA        -72.6557   25.0812  -76.2955 C.3       7 UNK         0.0284 
     36 CB        -72.5799   25.8606  -74.9724 C.3       7 UNK        -0.1958 
     37 N         -73.8641   24.2614  -76.2698 N.am      7 UNK        -0.4454 
     38 C         -73.9064   22.9306  -76.1481 C.2       7 UNK         0.5089 
     39 O         -72.9084   22.2131  -76.0529 O.2       7 UNK        -0.5125 
     40 CA        -75.3174   22.3157  -76.1037 C.3       6 UNK         0.0408 
     41 CB        -75.3225   20.7864  -75.8963 C.3       6 UNK        -0.1791 
     42 N         -76.1613   22.9993  -75.1184 N.am      6 UNK        -0.4762 
     43 C         -76.0191   23.0354  -73.7835 C.2       6 UNK         0.5007 
     44 O         -75.1859   22.3767  -73.1605 O.2       6 UNK        -0.5032 
     45 CA        -76.9823   23.9679  -73.0108 C.3       5 UNK         0.0783 
     46 C46       -76.3268   25.3394  -72.7055 C.3       11 UNK        -0.0857 
     47 S47       -75.2545   25.3129  -71.2335 S.3       11 UNK        -0.2512 
     48 C48       -76.4448   25.6488  -69.8929 C.3       11 UNK         0.0225 
     49 N         -78.2577   24.1618  -73.7056 N.am      5 UNK        -0.4615 
     50 C         -79.1850   23.2207  -73.9247 C.2       4 UNK         0.5053 
     51 O         -79.1224   22.0748  -73.4800 O.2       4 UNK        -0.5105 
     52 CA        -80.3620   23.6254  -74.8267 C.3       4 UNK         0.0263 
     53 CB        -81.4613   24.3305  -74.0154 C.3       4 UNK        -0.1981 
     54 N         -79.9146   24.4929  -75.9206 N.am      4 UNK        -0.4224 
     55 C         -79.3020   24.0507  -77.0295 C.2       3 UNK         0.4895 
     56 O         -79.1422   22.8589  -77.2921 O.2       3 UNK        -0.5091 
     57 CA        -78.7526   25.1062  -78.0053 C.3       3 UNK         0.0250 
     58 CB        -79.7763   25.4059  -79.1118 C.3       3 UNK        -0.1996 
     59 N         -78.3601   26.3521  -77.3402 N.am      3 UNK        -0.4254 
     60 C         -77.2550   26.4800  -76.5887 C.2       2 UNK         0.5004 
     61 O         -76.4502   25.5691  -76.4023 O.2       2 UNK        -0.5226 
     62 CA        -77.0288   27.8268  -75.8762 C.3       2 UNK         0.0269 
     63 CB        -76.2028   28.7664  -76.7659 C.3       2 UNK        -0.1926 
     64 N         -78.2657   28.5036  -75.4725 N.am      2 UNK        -0.4687 
     65 C         -79.1935   27.9713  -74.6648 C.2       1 UNK         0.5165 
     66 O         -79.0825   26.8549  -74.1558 O.2       1 UNK        -0.5079 
     67 H67       -83.6877   26.7093  -75.7374 H         1 UNK         0.0900 
     68 H68       -83.6286   27.3555  -77.3786 H         1 UNK         0.0900 
     69 H69       -82.7551   25.8732  -76.9813 H         1 UNK         0.0900 
     70 H70       -82.3214   27.7663  -74.2971 H         1 UNK         0.2959 
     71 H71       -80.4024   29.6910  -75.0654 H         1 UNK         0.1079 
     72 H72       -81.4480   30.0270  -72.9690 H         1 UNK         0.0837 
     73 H73       -79.7848   29.6841  -72.6088 H         1 UNK         0.0837 
     74 H74       -81.0702   27.8777  -69.4758 H         1 UNK         0.0685 
     75 H75       -80.9605   29.5067  -70.0916 H         1 UNK         0.0685 
     76 H76       -79.1003   26.2327  -70.1804 H         1 UNK         0.1434 
     77 H77       -75.2585   28.1042  -69.8180 H         1 UNK         0.1329 
     78 H78       -78.7956   30.5090  -70.1271 H         1 UNK         0.1335 
     79 H79       -75.0411   30.4544  -69.6905 H         1 UNK         0.0680 
     80 H80       -76.4107   31.2671  -68.9912 H         1 UNK         0.0680 
     81 H81       -76.2574   29.7171  -72.5945 H         1 UNK         0.1032 
     82 H82       -76.2904   31.1276  -73.5842 H         1 UNK         0.1032 
     83 H83       -73.7664   31.4758  -72.6146 H         1 UNK         0.0461 
     84 H84       -74.3033   28.0249  -73.5807 H         1 UNK         0.3453 
     85 H85       -73.4433   27.3681  -72.2108 H         1 UNK         0.3453 
     86 H86       -74.7659   30.8704  -75.0252 H         1 UNK         0.2984 
     87 H87       -73.8314   30.5702  -76.9515 H         1 UNK         0.0554 
     88 H88       -72.5909   32.7216  -76.5093 H         1 UNK         0.0847 
     89 H89       -72.1343   32.0275  -78.0545 H         1 UNK         0.0847 
     90 H90       -71.0591   31.8724  -76.6667 H         1 UNK         0.0847 
     91 H91       -71.5986   28.8398  -76.5051 H         1 UNK         0.3141 
     92 H92       -71.8943   27.3319  -79.7319 H         1 UNK         0.0743 
     93 H93       -69.8424   28.7466  -79.8790 H         1 UNK         0.0784 
     94 H94       -69.4358   28.3634  -78.2124 H         1 UNK         0.0784 
     95 H95       -69.4430   27.0951  -79.4390 H         1 UNK         0.0784 
     96 H96       -70.7340   26.4707  -77.2476 H         1 UNK         0.3213 
     97 H97       -71.7680   24.4542  -76.4035 H         1 UNK         0.0855 
     98 H98       -73.4325   26.5307  -74.8683 H         1 UNK         0.0814 
     99 H99       -71.6750   26.4659  -74.9109 H         1 UNK         0.0814 
    100 H100      -72.5782   25.1876  -74.1145 H         1 UNK         0.0814 
    101 H101      -74.7372   24.7688  -76.4131 H         1 UNK         0.3105 
    102 H102      -75.7700   22.5145  -77.0764 H         1 UNK         0.0547 
    103 H103      -76.3389   20.3939  -75.8724 H         1 UNK         0.0837 
    104 H104      -74.8278   20.4961  -74.9693 H         1 UNK         0.0837 
    105 H105      -74.7993   20.2842  -76.7107 H         1 UNK         0.0837 
    106 H106      -76.8247   23.6532  -75.5163 H         1 UNK         0.3020 
    107 H107      -77.2167   23.4699  -72.0675 H         1 UNK         0.1245 
    108 H108      -77.0883   26.1035  -72.5468 H         1 UNK         0.0781 
    109 H109      -75.7421   25.6939  -73.5563 H         1 UNK         0.0781 
    110 H110      -75.9208   25.5836  -68.9385 H         1 UNK         0.0836 
    111 H111      -77.1951   24.8568  -69.8805 H         1 UNK         0.0836 
    112 H112      -78.4524   25.1074  -74.0261 H         1 UNK         0.3022 
    113 H113      -80.7886   22.7137  -75.2511 H         1 UNK         0.0747 
    114 H114      -82.3203   24.5743  -74.6398 H         1 UNK         0.0793 
    115 H115      -81.8199   23.6889  -73.2095 H         1 UNK         0.0793 
    116 H116      -81.1046   25.2537  -73.5583 H         1 UNK         0.0793 
    117 H117      -79.9452   25.4889  -75.7491 H         1 UNK         0.3047 
    118 H118      -77.8637   24.6820  -78.4782 H         1 UNK         0.0822 
    119 H119      -79.3865   26.1285  -79.8288 H         1 UNK         0.0807 
    120 H120      -80.7083   25.8020  -78.7088 H         1 UNK         0.0807 
    121 H121      -80.0234   24.5001  -79.6673 H         1 UNK         0.0807 
    122 H122      -79.0048   27.1322  -77.4093 H         1 UNK         0.2946 
    123 H123      -76.4598   27.6214  -74.9677 H         1 UNK         0.1144 
    124 H124      -75.2271   28.3324  -76.9904 H         1 UNK         0.0793 
    125 H125      -76.0328   29.7257  -76.2806 H         1 UNK         0.0793 
    126 H126      -76.6982   28.9593  -77.7184 H         1 UNK         0.0793 
    127 H127      -78.4463   29.4025  -75.8963 H         1 UNK         0.2896 
@<TRIPOS>BOND
     1    1    2 1    
     2    1   67 1    
     3    1   68 1    
     4    1   69 1    
     5    2    3 2    
     6    2    4 am   BACKBONE|DICT|INTERRES
     7    4    5 1    
     8    4   70 1    
     9    5    6 1    
    10    5   65 1    
    11    5   71 1    
    12    6    7 1    
    13    6   72 1    
    14    6   73 1    
    15    7    8 1    
    16    8    9 1    
    17    8   74 1    
    18    8   75 1    
    19    9   10 ar   
    20    9   14 ar   
    21   10   11 ar   
    22   10   76 1    
    23   11   12 ar   
    24   11   48 1    
    25   12   13 ar   
    26   12   77 1    
    27   13   14 ar   
    28   13   15 1    
    29   14   78 1    
    30   15   16 1    
    31   15   79 1    
    32   15   80 1    
    33   16   17 1    
    34   17   18 1    
    35   17   81 1    
    36   17   82 1    
    37   18   19 1    
    38   18   22 1    
    39   18   83 1    
    40   19   20 am   BACKBONE|DICT|INTERRES
    41   19   21 2    
    42   20   84 1    
    43   20   85 1    
    44   22   23 am   BACKBONE|DICT|INTERRES
    45   22   86 1    
    46   23   24 2    
    47   23   25 1    
    48   25   26 1    
    49   25   27 1    
    50   25   87 1    
    51   26   88 1    
    52   26   89 1    
    53   26   90 1    
    54   27   28 am   BACKBONE|DICT|INTERRES
    55   27   91 1    
    56   28   29 2    
    57   28   30 1    
    58   30   31 1    
    59   30   32 1    
    60   30   92 1    
    61   31   93 1    
    62   31   94 1    
    63   31   95 1    
    64   32   33 am   BACKBONE|DICT|INTERRES
    65   32   96 1    
    66   33   34 2    
    67   33   35 1    
    68   35   36 1    
    69   35   37 1    
    70   35   97 1    
    71   36   98 1    
    72   36   99 1    
    73   36  100 1    
    74   37   38 am   BACKBONE|DICT|INTERRES
    75   37  101 1    
    76   38   39 2    
    77   38   40 1    
    78   40   41 1    
    79   40   42 1    
    80   40  102 1    
    81   41  103 1    
    82   41  104 1    
    83   41  105 1    
    84   42   43 am   BACKBONE|DICT|INTERRES
    85   42  106 1    
    86   43   44 2    
    87   43   45 1    
    88   45   46 1    
    89   45   49 1    
    90   45  107 1    
    91   46   47 1    
    92   46  108 1    
    93   46  109 1    
    94   47   48 1    
    95   48  110 1    
    96   48  111 1    
    97   49   50 am   BACKBONE|DICT|INTERRES
    98   49  112 1    
    99   50   51 2    
   100   50   52 1    
   101   52   53 1    
   102   52   54 1    
   103   52  113 1    
   104   53  114 1    
   105   53  115 1    
   106   53  116 1    
   107   54   55 am   BACKBONE|DICT|INTERRES
   108   54  117 1    
   109   55   56 2    
   110   55   57 1    
   111   57   58 1    
   112   57   59 1    
   113   57  118 1    
   114   58  119 1    
   115   58  120 1    
   116   58  121 1    
   117   59   60 am   BACKBONE|DICT|INTERRES
   118   59  122 1    
   119   60   61 2    
   120   60   62 1    
   121   62   63 1    
   122   62   64 1    
   123   62  123 1    
   124   63  124 1    
   125   63  125 1    
   126   63  126 1    
   127   64   65 am   BACKBONE|DICT|INTERRES
   128   64  127 1    
   129   65   66 2    
@<TRIPOS>SUBSTRUCTURE
     1 UNK         1 GROUP             0       ****    0 ROOT    
