@<TRIPOS>MOLECULE
3R135
127   129    1
SMALL
USER_CHARGES


@<TRIPOS>ATOM
      1 CA        -81.1957   24.2388  -71.5244 C.3       0 UNK        -0.1998 
      2 C         -81.4230   25.0990  -72.7581 C.2       0 UNK         0.4909 
      3 O         -82.1133   24.6730  -73.6848 O.2       0 UNK        -0.5240 
      4 N         -80.8469   26.3080  -72.7773 N.am      1 UNK        -0.4739 
      5 CA        -80.9190   27.2549  -73.8937 C.3       1 UNK         0.0864 
      6 C6        -80.2646   28.6098  -73.5378 C.3       11 UNK        -0.0881 
      7 S7        -81.2018   29.5724  -72.2963 S.3       11 UNK        -0.2682 
      8 C8        -80.3854   29.2159  -70.6988 C.3       11 UNK         0.0289 
      9 C9        -78.8637   29.2099  -70.7725 C.ar      11 UNK        -0.0687 
     10 C10       -78.1589   28.0613  -70.3991 C.ar      11 UNK        -0.0823 
     11 C11       -76.7694   27.9939  -70.5526 C.ar      11 UNK        -0.0830 
     12 C12       -76.0866   29.1156  -71.0266 C.ar      11 UNK        -0.1021 
     13 C13       -76.7718   30.2801  -71.3771 C.ar      11 UNK        -0.0753 
     14 C14       -78.1625   30.3256  -71.2446 C.ar      11 UNK        -0.0933 
     15 C15       -75.9979   31.4681  -71.9240 C.3       11 UNK         0.0166 
     16 S16       -75.8710   31.3644  -73.7354 S.3       11 UNK        -0.2615 
     17 C17       -74.3797   32.3579  -74.0785 C.3       11 UNK        -0.0865 
     18 CA        -73.2883   31.5593  -74.8426 C.3       10 UNK         0.0862 
     19 C         -72.1273   32.5089  -75.2495 C.2       10 UNK         0.5551 
     20 N         -72.1758   33.0711  -76.4492 N.am      10 UNK        -0.7319 
     21 O         -71.2159   32.7768  -74.4684 O.2       10 UNK        -0.5018 
     22 N         -72.8271   30.3850  -74.0815 N.am      10 UNK        -0.4509 
     23 C         -71.9663   29.4591  -74.5304 C.2       10 UNK         0.4899 
     24 O         -71.4928   29.4605  -75.6676 O.2       10 UNK        -0.4839 
     25 CA        -71.5376   28.3474  -73.5550 C.3       9 UNK         0.0222 
     26 CB        -72.1887   28.4354  -72.1609 C.3       9 UNK        -0.1966 
     27 N         -71.8565   27.0468  -74.1407 N.am      9 UNK        -0.4218 
     28 C         -70.9727   26.1852  -74.6603 C.2       9 UNK         0.5020 
     29 O         -69.7529   26.3609  -74.6645 O.2       9 UNK        -0.5274 
     30 CA        -71.5479   24.8994  -75.2800 C.3       8 UNK         0.0270 
     31 CB        -71.9616   23.8996  -74.1868 C.3       8 UNK        -0.1976 
     32 N         -72.6903   25.1625  -76.1555 N.am      8 UNK        -0.4313 
     33 C         -72.6204   25.7718  -77.3481 C.2       8 UNK         0.5041 
     34 O         -71.5663   26.1081  -77.8887 O.2       8 UNK        -0.5577 
     35 CA        -73.9552   26.0680  -78.0508 C.3       7 UNK         0.0284 
     36 CB        -74.4650   24.8405  -78.8247 C.3       7 UNK        -0.1958 
     37 N         -74.9628   26.5110  -77.0849 N.am      7 UNK        -0.4454 
     38 C         -75.0612   27.7714  -76.6399 C.2       7 UNK         0.5089 
     39 O         -74.4184   28.7093  -77.1098 O.2       7 UNK        -0.5125 
     40 CA        -76.0369   28.0496  -75.4833 C.3       6 UNK         0.0408 
     41 CB        -77.2550   28.8414  -75.9808 C.3       6 UNK        -0.1791 
     42 N         -76.4887   26.8470  -74.7781 N.am      6 UNK        -0.4762 
     43 C         -75.7431   26.1631  -73.9006 C.2       6 UNK         0.5007 
     44 O         -74.5779   26.4486  -73.6271 O.2       6 UNK        -0.5032 
     45 CA        -76.3917   24.9100  -73.2774 C.3       5 UNK         0.0783 
     46 C46       -77.4519   25.2902  -72.2111 C.3       11 UNK        -0.0857 
     47 S47       -76.8515   25.1533  -70.4947 S.3       11 UNK        -0.2512 
     48 C48       -75.9713   26.7325  -70.2248 C.3       11 UNK         0.0225 
     49 N         -76.9551   23.9932  -74.2755 N.am      5 UNK        -0.4615 
     50 C         -76.3073   23.4737  -75.3259 C.2       4 UNK         0.5053 
     51 O         -75.1644   23.7900  -75.6527 O.2       4 UNK        -0.5105 
     52 CA        -77.0591   22.4182  -76.1418 C.3       4 UNK         0.0263 
     53 CB        -76.8791   21.0389  -75.4715 C.3       4 UNK        -0.1981 
     54 N         -78.4741   22.7776  -76.2904 N.am      4 UNK        -0.4224 
     55 C         -79.3794   22.1086  -77.0194 C.2       3 UNK         0.4895 
     56 O         -79.1385   21.0748  -77.6437 O.2       3 UNK        -0.5091 
     57 CA        -80.8032   22.6929  -77.0779 C.3       3 UNK         0.0250 
     58 CB        -81.6722   22.0916  -75.9617 C.3       3 UNK        -0.1996 
     59 N         -80.8491   24.1557  -76.9948 N.am      3 UNK        -0.4254 
     60 C         -80.3286   24.9899  -77.9078 C.2       2 UNK         0.5004 
     61 O         -79.7738   24.6057  -78.9379 O.2       2 UNK        -0.5226 
     62 CA        -80.4366   26.5061  -77.6513 C.3       2 UNK         0.0269 
     63 CB        -81.3409   27.1692  -78.7043 C.3       2 UNK        -0.1926 
     64 N         -80.9128   26.8899  -76.3168 N.am      2 UNK        -0.4687 
     65 C         -80.2641   26.6755  -75.1653 C.2       1 UNK         0.5165 
     66 O         -79.1894   26.0730  -75.0888 O.2       1 UNK        -0.5079 
     67 H67       -80.7257   23.2970  -71.8060 H         1 UNK         0.0900 
     68 H68       -80.5550   24.7325  -70.7938 H         1 UNK         0.0900 
     69 H69       -82.1478   24.0142  -71.0444 H         1 UNK         0.0900 
     70 H70       -80.2939   26.6094  -71.9904 H         1 UNK         0.2959 
     71 H71       -81.9773   27.4248  -74.1045 H         1 UNK         0.1079 
     72 H72       -80.2165   29.2458  -74.4241 H         1 UNK         0.0837 
     73 H73       -79.2284   28.4663  -73.2302 H         1 UNK         0.0837 
     74 H74       -80.7007   29.9638  -69.9702 H         1 UNK         0.0685 
     75 H75       -80.7589   28.2591  -70.3311 H         1 UNK         0.0685 
     76 H76       -78.6979   27.2044  -70.0203 H         1 UNK         0.1434 
     77 H77       -75.0136   29.0831  -71.1336 H         1 UNK         0.1329 
     78 H78       -78.7026   31.2153  -71.5384 H         1 UNK         0.1335 
     79 H79       -75.0024   31.4909  -71.4782 H         1 UNK         0.0680 
     80 H80       -76.4849   32.4041  -71.6465 H         1 UNK         0.0680 
     81 H81       -74.6987   33.2195  -74.6685 H         1 UNK         0.1032 
     82 H82       -73.9754   32.7682  -73.1513 H         1 UNK         0.1032 
     83 H83       -73.7386   31.1731  -75.7596 H         1 UNK         0.0461 
     84 H84       -72.9234   32.8612  -77.0925 H         1 UNK         0.3453 
     85 H85       -71.4412   33.7041  -76.7249 H         1 UNK         0.3453 
     86 H86       -73.1644   30.3146  -73.1346 H         1 UNK         0.2984 
     87 H87       -70.4590   28.4499  -73.4210 H         1 UNK         0.0554 
     88 H88       -71.9716   29.3861  -71.6721 H         1 UNK         0.0847 
     89 H89       -71.8110   27.6499  -71.5062 H         1 UNK         0.0847 
     90 H90       -73.2690   28.3163  -72.2193 H         1 UNK         0.0847 
     91 H91       -72.8449   26.8013  -74.1567 H         1 UNK         0.3141 
     92 H92       -70.7620   24.4376  -75.8815 H         1 UNK         0.0743 
     93 H93       -71.1220   23.6712  -73.5289 H         1 UNK         0.0784 
     94 H94       -72.7686   24.2889  -73.5648 H         1 UNK         0.0784 
     95 H95       -72.3007   22.9583  -74.6199 H         1 UNK         0.0784 
     96 H96       -73.5987   24.8404  -75.8302 H         1 UNK         0.3213 
     97 H97       -73.7812   26.8664  -78.7760 H         1 UNK         0.0855 
     98 H98       -74.6065   23.9738  -78.1798 H         1 UNK         0.0814 
     99 H99       -73.7527   24.5514  -79.5985 H         1 UNK         0.0814 
    100 H100      -75.4134   25.0491  -79.3199 H         1 UNK         0.0814 
    101 H101      -75.5021   25.7929  -76.6205 H         1 UNK         0.3105 
    102 H102      -75.4994   28.6740  -74.7677 H         1 UNK         0.0547 
    103 H103      -77.8789   29.1620  -75.1485 H         1 UNK         0.0837 
    104 H104      -76.9448   29.7444  -76.5085 H         1 UNK         0.0837 
    105 H105      -77.8672   28.2564  -76.6652 H         1 UNK         0.0837 
    106 H106      -77.4424   26.5325  -74.9528 H         1 UNK         0.3020 
    107 H107      -75.5849   24.3540  -72.7944 H         1 UNK         0.1245 
    108 H108      -78.2999   24.6069  -72.2665 H         1 UNK         0.0781 
    109 H109      -77.8879   26.2724  -72.3952 H         1 UNK         0.0781 
    110 H110      -75.0542   26.7079  -70.8158 H         1 UNK         0.0836 
    111 H111      -75.6602   26.7817  -69.1807 H         1 UNK         0.0836 
    112 H112      -77.8846   23.6571  -74.0769 H         1 UNK         0.3022 
    113 H113      -76.6105   22.3903  -77.1369 H         1 UNK         0.0747 
    114 H114      -77.2312   20.2271  -76.1069 H         1 UNK         0.0793 
    115 H115      -75.8265   20.8383  -75.2652 H         1 UNK         0.0793 
    116 H116      -77.4146   20.9776  -74.5234 H         1 UNK         0.0793 
    117 H117      -78.7565   23.6608  -75.8846 H         1 UNK         0.3047 
    118 H118      -81.2349   22.4044  -78.0387 H         1 UNK         0.0822 
    119 H119      -81.6980   21.0031  -76.0304 H         1 UNK         0.0807 
    120 H120      -82.7019   22.4440  -76.0247 H         1 UNK         0.0807 
    121 H121      -81.2915   22.3463  -74.9718 H         1 UNK         0.0807 
    122 H122      -81.2913   24.5529  -76.1765 H         1 UNK         0.2946 
    123 H123      -79.4281   26.9050  -77.7730 H         1 UNK         0.1144 
    124 H124      -81.3439   28.2544  -78.5996 H         1 UNK         0.0793 
    125 H125      -82.3713   26.8199  -78.6279 H         1 UNK         0.0793 
    126 H126      -80.9964   26.9471  -79.7154 H         1 UNK         0.0793 
    127 H127      -81.7949   27.3819  -76.2898 H         1 UNK         0.2896 
@<TRIPOS>BOND
     1    1    2 1    
     2    1   67 1    
     3    1   68 1    
     4    1   69 1    
     5    2    3 2    
     6    2    4 am   BACKBONE|DICT|INTERRES
     7    4    5 1    
     8    4   70 1    
     9    5    6 1    
    10    5   65 1    
    11    5   71 1    
    12    6    7 1    
    13    6   72 1    
    14    6   73 1    
    15    7    8 1    
    16    8    9 1    
    17    8   74 1    
    18    8   75 1    
    19    9   10 ar   
    20    9   14 ar   
    21   10   11 ar   
    22   10   76 1    
    23   11   12 ar   
    24   11   48 1    
    25   12   13 ar   
    26   12   77 1    
    27   13   14 ar   
    28   13   15 1    
    29   14   78 1    
    30   15   16 1    
    31   15   79 1    
    32   15   80 1    
    33   16   17 1    
    34   17   18 1    
    35   17   81 1    
    36   17   82 1    
    37   18   19 1    
    38   18   22 1    
    39   18   83 1    
    40   19   20 am   BACKBONE|DICT|INTERRES
    41   19   21 2    
    42   20   84 1    
    43   20   85 1    
    44   22   23 am   BACKBONE|DICT|INTERRES
    45   22   86 1    
    46   23   24 2    
    47   23   25 1    
    48   25   26 1    
    49   25   27 1    
    50   25   87 1    
    51   26   88 1    
    52   26   89 1    
    53   26   90 1    
    54   27   28 am   BACKBONE|DICT|INTERRES
    55   27   91 1    
    56   28   29 2    
    57   28   30 1    
    58   30   31 1    
    59   30   32 1    
    60   30   92 1    
    61   31   93 1    
    62   31   94 1    
    63   31   95 1    
    64   32   33 am   BACKBONE|DICT|INTERRES
    65   32   96 1    
    66   33   34 2    
    67   33   35 1    
    68   35   36 1    
    69   35   37 1    
    70   35   97 1    
    71   36   98 1    
    72   36   99 1    
    73   36  100 1    
    74   37   38 am   BACKBONE|DICT|INTERRES
    75   37  101 1    
    76   38   39 2    
    77   38   40 1    
    78   40   41 1    
    79   40   42 1    
    80   40  102 1    
    81   41  103 1    
    82   41  104 1    
    83   41  105 1    
    84   42   43 am   BACKBONE|DICT|INTERRES
    85   42  106 1    
    86   43   44 2    
    87   43   45 1    
    88   45   46 1    
    89   45   49 1    
    90   45  107 1    
    91   46   47 1    
    92   46  108 1    
    93   46  109 1    
    94   47   48 1    
    95   48  110 1    
    96   48  111 1    
    97   49   50 am   BACKBONE|DICT|INTERRES
    98   49  112 1    
    99   50   51 2    
   100   50   52 1    
   101   52   53 1    
   102   52   54 1    
   103   52  113 1    
   104   53  114 1    
   105   53  115 1    
   106   53  116 1    
   107   54   55 am   BACKBONE|DICT|INTERRES
   108   54  117 1    
   109   55   56 2    
   110   55   57 1    
   111   57   58 1    
   112   57   59 1    
   113   57  118 1    
   114   58  119 1    
   115   58  120 1    
   116   58  121 1    
   117   59   60 am   BACKBONE|DICT|INTERRES
   118   59  122 1    
   119   60   61 2    
   120   60   62 1    
   121   62   63 1    
   122   62   64 1    
   123   62  123 1    
   124   63  124 1    
   125   63  125 1    
   126   63  126 1    
   127   64   65 am   BACKBONE|DICT|INTERRES
   128   64  127 1    
   129   65   66 2    
@<TRIPOS>SUBSTRUCTURE
     1 UNK         1 GROUP             0       ****    0 ROOT    
