@<TRIPOS>MOLECULE
3R135
127   129    1
SMALL
USER_CHARGES


@<TRIPOS>ATOM
      1 CA        -82.9431   27.1798  -70.8261 C.3       0 UNK        -0.1998 
      2 C         -82.2491   27.0561  -72.1733 C.2       0 UNK         0.4909 
      3 O         -81.1299   26.5507  -72.2350 O.2       0 UNK        -0.5240 
      4 N         -82.9128   27.4987  -73.2504 N.am      1 UNK        -0.4739 
      5 CA        -82.4588   27.5571  -74.6538 C.3       1 UNK         0.0864 
      6 C6        -81.1782   28.4041  -74.8766 C.3       11 UNK        -0.0881 
      7 S7        -81.3156   30.1030  -74.2311 S.3       11 UNK        -0.2682 
      8 C8        -79.6115   30.7023  -74.5039 C.3       11 UNK         0.0289 
      9 C9        -78.5686   30.2912  -73.4592 C.ar      11 UNK        -0.0687 
     10 C10       -78.8190   29.3587  -72.4436 C.ar      11 UNK        -0.0823 
     11 C11       -77.8320   29.0390  -71.5081 C.ar      11 UNK        -0.0830 
     12 C12       -76.5863   29.6680  -71.5781 C.ar      11 UNK        -0.1021 
     13 C13       -76.3043   30.5864  -72.5974 C.ar      11 UNK        -0.0753 
     14 C14       -77.3047   30.8858  -73.5277 C.ar      11 UNK        -0.0933 
     15 C15       -74.9509   31.2861  -72.7538 C.3       11 UNK         0.0166 
     16 S16       -73.6763   30.9165  -71.4950 S.3       11 UNK        -0.2615 
     17 C17       -73.1225   29.2519  -72.0038 C.3       11 UNK        -0.0865 
     18 CA        -72.0856   29.2768  -73.1645 C.3       10 UNK         0.0862 
     19 C         -70.6152   29.5485  -72.7122 C.2       10 UNK         0.5551 
     20 N         -69.6062   29.0463  -73.4175 N.am      10 UNK        -0.7319 
     21 O         -70.3740   30.2399  -71.7260 O.2       10 UNK        -0.5018 
     22 N         -72.2315   28.1263  -74.0682 N.am      10 UNK        -0.4509 
     23 C         -71.9981   26.8427  -73.7532 C.2       10 UNK         0.4899 
     24 O         -71.7811   26.4496  -72.6065 O.2       10 UNK        -0.4839 
     25 CA        -71.9333   25.8202  -74.9080 C.3       9 UNK         0.0222 
     26 CB        -73.1257   24.8543  -74.8772 C.3       9 UNK        -0.1966 
     27 N         -71.8325   26.4316  -76.2360 N.am      9 UNK        -0.4218 
     28 C         -70.7647   27.1140  -76.6765 C.2       9 UNK         0.5020 
     29 O         -69.7212   27.2362  -76.0323 O.2       9 UNK        -0.5274 
     30 CA        -70.8882   27.8235  -78.0368 C.3       8 UNK         0.0270 
     31 CB        -70.2549   26.9683  -79.1464 C.3       8 UNK        -0.1976 
     32 N         -72.2586   28.1790  -78.4235 N.am      8 UNK        -0.4313 
     33 C         -73.0945   28.9681  -77.7328 C.2       8 UNK         0.5041 
     34 O         -72.8198   29.4591  -76.6362 O.2       8 UNK        -0.5577 
     35 CA        -74.4676   29.2702  -78.3644 C.3       7 UNK         0.0284 
     36 CB        -74.6756   28.6532  -79.7680 C.3       7 UNK        -0.1958 
     37 N         -75.5816   28.9059  -77.4820 N.am      7 UNK        -0.4454 
     38 C         -75.8490   27.6956  -76.9705 C.2       7 UNK         0.5089 
     39 O         -75.1469   26.6960  -77.1446 O.2       7 UNK        -0.5125 
     40 CA        -77.1886   27.5849  -76.2168 C.3       6 UNK         0.0408 
     41 CB        -78.3102   27.2628  -77.2180 C.3       6 UNK        -0.1791 
     42 N         -77.2051   26.5693  -75.1625 N.am      6 UNK        -0.4762 
     43 C         -76.4167   26.5583  -74.0784 C.2       6 UNK         0.5007 
     44 O         -75.5425   27.3961  -73.8689 O.2       6 UNK        -0.5032 
     45 CA        -76.6124   25.4100  -73.0697 C.3       5 UNK         0.0783 
     46 C46       -77.7202   25.7287  -72.0304 C.3       11 UNK        -0.0857 
     47 S47       -77.0603   26.5451  -70.5390 S.3       11 UNK        -0.2512 
     48 C48       -78.1159   28.0250  -70.4086 C.3       11 UNK         0.0225 
     49 N         -76.8793   24.1423  -73.7571 N.am      5 UNK        -0.4615 
     50 C         -76.1692   23.0176  -73.5907 C.2       4 UNK         0.5053 
     51 O         -75.1989   22.9319  -72.8380 O.2       4 UNK        -0.5105 
     52 CA        -76.6095   21.7529  -74.3566 C.3       4 UNK         0.0263 
     53 CB        -77.1741   20.7056  -73.3814 C.3       4 UNK        -0.1981 
     54 N         -77.6070   22.0071  -75.3957 N.am      4 UNK        -0.4224 
     55 C         -77.3601   22.5696  -76.5863 C.2       3 UNK         0.4895 
     56 O         -76.2316   22.8478  -76.9900 O.2       3 UNK        -0.5091 
     57 CA        -78.5820   22.8978  -77.4689 C.3       3 UNK         0.0250 
     58 CB        -78.7340   21.8505  -78.5840 C.3       3 UNK        -0.1996 
     59 N         -79.8557   23.0144  -76.7409 N.am      3 UNK        -0.4254 
     60 C         -80.1061   23.9004  -75.7672 C.2       2 UNK         0.5004 
     61 O         -79.2628   24.6887  -75.3330 O.2       2 UNK        -0.5226 
     62 CA        -81.4958   23.8446  -75.1168 C.3       2 UNK         0.0269 
     63 CB        -81.4951   22.8397  -73.9533 C.3       2 UNK        -0.1926 
     64 N         -81.8655   25.1599  -74.5981 N.am      2 UNK        -0.4687 
     65 C         -82.3046   26.1814  -75.3405 C.2       1 UNK         0.5165 
     66 O         -82.5852   26.0736  -76.5355 O.2       1 UNK        -0.5079 
     67 H67       -83.0678   26.1948  -70.3772 H         1 UNK         0.0900 
     68 H68       -83.9265   27.6414  -70.9134 H         1 UNK         0.0900 
     69 H69       -82.3413   27.7883  -70.1515 H         1 UNK         0.0900 
     70 H70       -83.8419   27.8704  -73.1088 H         1 UNK         0.2959 
     71 H71       -83.2685   28.0574  -75.1882 H         1 UNK         0.1079 
     72 H72       -80.9724   28.4886  -75.9450 H         1 UNK         0.0837 
     73 H73       -80.3079   27.9137  -74.4368 H         1 UNK         0.0837 
     74 H74       -79.2747   30.3815  -75.4906 H         1 UNK         0.0685 
     75 H75       -79.6531   31.7921  -74.5354 H         1 UNK         0.0685 
     76 H76       -79.7814   28.8759  -72.3658 H         1 UNK         0.1434 
     77 H77       -75.8389   29.4138  -70.8411 H         1 UNK         0.1329 
     78 H78       -77.0978   31.5997  -74.3137 H         1 UNK         0.1335 
     79 H79       -74.5481   31.0548  -73.7410 H         1 UNK         0.0680 
     80 H80       -75.1218   32.3635  -72.7388 H         1 UNK         0.0680 
     81 H81       -72.7210   28.7253  -71.1363 H         1 UNK         0.1032 
     82 H82       -74.0050   28.6857  -72.2991 H         1 UNK         0.1032 
     83 H83       -72.3275   30.1267  -73.8028 H         1 UNK         0.0461 
     84 H84       -69.7762   28.4751  -74.2357 H         1 UNK         0.3453 
     85 H85       -68.6607   29.2328  -73.1236 H         1 UNK         0.3453 
     86 H86       -72.4192   28.3720  -75.0363 H         1 UNK         0.2984 
     87 H87       -71.0292   25.2288  -74.7485 H         1 UNK         0.0554 
     88 H88       -73.0000   24.0414  -75.5924 H         1 UNK         0.0847 
     89 H89       -74.0602   25.3598  -75.1118 H         1 UNK         0.0847 
     90 H90       -73.2343   24.4032  -73.8905 H         1 UNK         0.0847 
     91 H91       -72.6684   26.4191  -76.8069 H         1 UNK         0.3141 
     92 H92       -70.3244   28.7556  -77.9611 H         1 UNK         0.0743 
     93 H93       -70.7977   26.0339  -79.2956 H         1 UNK         0.0784 
     94 H94       -70.2330   27.5016  -80.0971 H         1 UNK         0.0784 
     95 H95       -69.2239   26.7100  -78.8998 H         1 UNK         0.0784 
     96 H96       -72.5851   27.8107  -79.3054 H         1 UNK         0.3213 
     97 H97       -74.5077   30.3549  -78.4762 H         1 UNK         0.0855 
     98 H98       -74.6539   27.5628  -79.7488 H         1 UNK         0.0814 
     99 H99       -73.9142   28.9944  -80.4709 H         1 UNK         0.0814 
    100 H100      -75.6387   28.9506  -80.1831 H         1 UNK         0.0814 
    101 H101      -76.2097   29.6628  -77.2517 H         1 UNK         0.3105 
    102 H102      -77.4045   28.5432  -75.7404 H         1 UNK         0.0547 
    103 H103      -78.1001   26.3449  -77.7683 H         1 UNK         0.0837 
    104 H104      -79.2698   27.1317  -76.7214 H         1 UNK         0.0837 
    105 H105      -78.4275   28.0623  -77.9504 H         1 UNK         0.0837 
    106 H106      -77.9187   25.8492  -75.2551 H         1 UNK         0.3020 
    107 H107      -75.6591   25.3254  -72.5422 H         1 UNK         0.1245 
    108 H108      -78.5255   26.3190  -72.4710 H         1 UNK         0.0781 
    109 H109      -78.1957   24.8084  -71.6873 H         1 UNK         0.0781 
    110 H110      -79.1634   27.7183  -70.4150 H         1 UNK         0.0836 
    111 H111      -77.9418   28.4965  -69.4405 H         1 UNK         0.0836 
    112 H112      -77.6710   24.1410  -74.3923 H         1 UNK         0.3022 
    113 H113      -75.7181   21.3348  -74.8293 H         1 UNK         0.0747 
    114 H114      -77.4302   19.7796  -73.8967 H         1 UNK         0.0793 
    115 H115      -76.4431   20.4528  -72.6120 H         1 UNK         0.0793 
    116 H116      -78.0690   21.0678  -72.8733 H         1 UNK         0.0793 
    117 H117      -78.5667   21.8022  -75.1606 H         1 UNK         0.3047 
    118 H118      -78.3836   23.8651  -77.9347 H         1 UNK         0.0822 
    119 H119      -79.5267   22.1233  -79.2810 H         1 UNK         0.0807 
    120 H120      -78.9632   20.8627  -78.1820 H         1 UNK         0.0807 
    121 H121      -77.8142   21.7605  -79.1640 H         1 UNK         0.0807 
    122 H122      -80.5919   22.3836  -77.0254 H         1 UNK         0.2946 
    123 H123      -82.2307   23.5339  -75.8632 H         1 UNK         0.1144 
    124 H124      -82.4732   22.7894  -73.4744 H         1 UNK         0.0793 
    125 H125      -80.7633   23.1080  -73.1894 H         1 UNK         0.0793 
    126 H126      -81.2541   21.8340  -74.2999 H         1 UNK         0.0793 
    127 H127      -81.5709   25.3826  -73.6508 H         1 UNK         0.2896 
@<TRIPOS>BOND
     1    1    2 1    
     2    1   67 1    
     3    1   68 1    
     4    1   69 1    
     5    2    3 2    
     6    2    4 am   BACKBONE|DICT|INTERRES
     7    4    5 1    
     8    4   70 1    
     9    5    6 1    
    10    5   65 1    
    11    5   71 1    
    12    6    7 1    
    13    6   72 1    
    14    6   73 1    
    15    7    8 1    
    16    8    9 1    
    17    8   74 1    
    18    8   75 1    
    19    9   10 ar   
    20    9   14 ar   
    21   10   11 ar   
    22   10   76 1    
    23   11   12 ar   
    24   11   48 1    
    25   12   13 ar   
    26   12   77 1    
    27   13   14 ar   
    28   13   15 1    
    29   14   78 1    
    30   15   16 1    
    31   15   79 1    
    32   15   80 1    
    33   16   17 1    
    34   17   18 1    
    35   17   81 1    
    36   17   82 1    
    37   18   19 1    
    38   18   22 1    
    39   18   83 1    
    40   19   20 am   BACKBONE|DICT|INTERRES
    41   19   21 2    
    42   20   84 1    
    43   20   85 1    
    44   22   23 am   BACKBONE|DICT|INTERRES
    45   22   86 1    
    46   23   24 2    
    47   23   25 1    
    48   25   26 1    
    49   25   27 1    
    50   25   87 1    
    51   26   88 1    
    52   26   89 1    
    53   26   90 1    
    54   27   28 am   BACKBONE|DICT|INTERRES
    55   27   91 1    
    56   28   29 2    
    57   28   30 1    
    58   30   31 1    
    59   30   32 1    
    60   30   92 1    
    61   31   93 1    
    62   31   94 1    
    63   31   95 1    
    64   32   33 am   BACKBONE|DICT|INTERRES
    65   32   96 1    
    66   33   34 2    
    67   33   35 1    
    68   35   36 1    
    69   35   37 1    
    70   35   97 1    
    71   36   98 1    
    72   36   99 1    
    73   36  100 1    
    74   37   38 am   BACKBONE|DICT|INTERRES
    75   37  101 1    
    76   38   39 2    
    77   38   40 1    
    78   40   41 1    
    79   40   42 1    
    80   40  102 1    
    81   41  103 1    
    82   41  104 1    
    83   41  105 1    
    84   42   43 am   BACKBONE|DICT|INTERRES
    85   42  106 1    
    86   43   44 2    
    87   43   45 1    
    88   45   46 1    
    89   45   49 1    
    90   45  107 1    
    91   46   47 1    
    92   46  108 1    
    93   46  109 1    
    94   47   48 1    
    95   48  110 1    
    96   48  111 1    
    97   49   50 am   BACKBONE|DICT|INTERRES
    98   49  112 1    
    99   50   51 2    
   100   50   52 1    
   101   52   53 1    
   102   52   54 1    
   103   52  113 1    
   104   53  114 1    
   105   53  115 1    
   106   53  116 1    
   107   54   55 am   BACKBONE|DICT|INTERRES
   108   54  117 1    
   109   55   56 2    
   110   55   57 1    
   111   57   58 1    
   112   57   59 1    
   113   57  118 1    
   114   58  119 1    
   115   58  120 1    
   116   58  121 1    
   117   59   60 am   BACKBONE|DICT|INTERRES
   118   59  122 1    
   119   60   61 2    
   120   60   62 1    
   121   62   63 1    
   122   62   64 1    
   123   62  123 1    
   124   63  124 1    
   125   63  125 1    
   126   63  126 1    
   127   64   65 am   BACKBONE|DICT|INTERRES
   128   64  127 1    
   129   65   66 2    
@<TRIPOS>SUBSTRUCTURE
     1 UNK         1 GROUP             0       ****    0 ROOT    
