@<TRIPOS>MOLECULE
3R135
127   129    1
SMALL
USER_CHARGES


@<TRIPOS>ATOM
      1 CA        -77.4005   25.6905  -72.5233 C.3       0 UNK        -0.1998 
      2 C         -78.6637   25.2163  -71.8210 C.2       0 UNK         0.4909 
      3 O         -78.7660   24.0443  -71.4577 O.2       0 UNK        -0.5240 
      4 N         -79.6253   26.1245  -71.6164 N.am      1 UNK        -0.4739 
      5 CA        -80.9271   25.8205  -71.0087 C.3       1 UNK         0.0864 
      6 C6        -81.5690   27.0335  -70.2840 C.3       11 UNK        -0.0881 
      7 S7        -80.4385   27.8868  -69.1324 S.3       11 UNK        -0.2682 
      8 C8        -80.2218   29.4968  -69.9603 C.3       11 UNK         0.0289 
      9 C9        -79.3817   29.3827  -71.2253 C.ar      11 UNK        -0.0687 
     10 C10       -79.9909   29.2570  -72.4780 C.ar      11 UNK        -0.0823 
     11 C11       -79.2177   29.1469  -73.6386 C.ar      11 UNK        -0.0830 
     12 C12       -77.8228   29.2058  -73.5422 C.ar      11 UNK        -0.1021 
     13 C13       -77.2039   29.3316  -72.2951 C.ar      11 UNK        -0.0753 
     14 C14       -77.9878   29.4124  -71.1410 C.ar      11 UNK        -0.0933 
     15 C15       -75.6893   29.3728  -72.1808 C.3       11 UNK         0.0166 
     16 S16       -75.0960   31.0862  -72.0318 S.3       11 UNK        -0.2615 
     17 C17       -73.3937   30.8241  -71.4263 C.3       11 UNK        -0.0865 
     18 CA        -72.3032   31.1928  -72.4647 C.3       10 UNK         0.0862 
     19 C         -70.8899   31.0586  -71.8220 C.2       10 UNK         0.5551 
     20 N         -70.0896   30.0573  -72.1718 N.am      10 UNK        -0.7319 
     21 O         -70.5175   31.8807  -70.9885 O.2       10 UNK        -0.5018 
     22 N         -72.4708   30.4459  -73.7204 N.am      10 UNK        -0.4509 
     23 C         -71.8221   30.7050  -74.8624 C.2       10 UNK         0.4899 
     24 O         -71.1255   31.7066  -75.0352 O.2       10 UNK        -0.4839 
     25 CA        -71.9666   29.6723  -76.0009 C.3       9 UNK         0.0222 
     26 CB        -70.6832   29.5629  -76.8499 C.3       9 UNK        -0.1966 
     27 N         -72.3987   28.3327  -75.5746 N.am      9 UNK        -0.4218 
     28 C         -71.8091   27.5193  -74.6825 C.2       9 UNK         0.5020 
     29 O         -70.8342   27.8328  -73.9972 O.2       9 UNK        -0.5274 
     30 CA        -72.4198   26.1162  -74.5297 C.3       8 UNK         0.0270 
     31 CB        -73.7368   26.1713  -73.7356 C.3       8 UNK        -0.1976 
     32 N         -72.6493   25.4672  -75.8222 N.am      8 UNK        -0.4313 
     33 C         -71.6848   25.1138  -76.6857 C.2       8 UNK         0.5041 
     34 O         -70.4795   25.2160  -76.4542 O.2       8 UNK        -0.5577 
     35 CA        -72.1418   24.5697  -78.0473 C.3       7 UNK         0.0284 
     36 CB        -72.4819   23.0734  -77.9568 C.3       7 UNK        -0.1958 
     37 N         -73.2941   25.3155  -78.5563 N.am      7 UNK        -0.4454 
     38 C         -73.2063   26.4978  -79.1823 C.2       7 UNK         0.5089 
     39 O         -72.1410   27.0430  -79.4704 O.2       7 UNK        -0.5125 
     40 CA        -74.5269   27.1970  -79.5539 C.3       6 UNK         0.0408 
     41 CB        -74.9205   26.8623  -81.0012 C.3       6 UNK        -0.1791 
     42 N         -75.6399   26.8636  -78.6604 N.am      6 UNK        -0.4762 
     43 C         -75.7355   27.2604  -77.3829 C.2       6 UNK         0.5007 
     44 O         -74.8920   27.9532  -76.8149 O.2       6 UNK        -0.5032 
     45 CA        -76.9582   26.7586  -76.5906 C.3       5 UNK         0.0783 
     46 C46       -78.1660   27.6956  -76.8288 C.3       11 UNK        -0.0857 
     47 S47       -79.5761   27.3390  -75.7236 S.3       11 UNK        -0.2512 
     48 C48       -79.8976   28.9798  -74.9912 C.3       11 UNK         0.0225 
     49 N         -77.2821   25.3541  -76.8748 N.am      5 UNK        -0.4615 
     50 C         -76.4519   24.3127  -76.7127 C.2       4 UNK         0.5053 
     51 O         -75.2745   24.4388  -76.3714 O.2       4 UNK        -0.5105 
     52 CA        -77.0147   22.9046  -77.0099 C.3       4 UNK         0.0263 
     53 CB        -76.2823   21.8038  -76.2126 C.3       4 UNK        -0.1981 
     54 N         -78.4711   22.7841  -76.8337 N.am      4 UNK        -0.4224 
     55 C         -79.1563   23.0105  -75.7038 C.2       3 UNK         0.4895 
     56 O         -78.6433   23.3677  -74.6431 O.2       3 UNK        -0.5091 
     57 CA        -80.6731   22.8239  -75.7646 C.3       3 UNK         0.0250 
     58 CB        -81.0944   21.4662  -75.1759 C.3       3 UNK        -0.1996 
     59 N         -81.2633   23.9134  -74.9985 N.am      3 UNK        -0.4254 
     60 C         -82.4731   24.4458  -75.1911 C.2       2 UNK         0.5004 
     61 O         -83.2920   23.9981  -75.9958 O.2       2 UNK        -0.5226 
     62 CA        -82.8101   25.7182  -74.3901 C.3       2 UNK         0.0269 
     63 CB        -84.3027   25.8034  -74.0031 C.3       2 UNK        -0.1926 
     64 N         -81.9367   25.9539  -73.2298 N.am      2 UNK        -0.4687 
     65 C         -81.8988   25.2739  -72.0713 C.2       1 UNK         0.5165 
     66 O         -82.5833   24.2812  -71.8230 O.2       1 UNK        -0.5079 
     67 H67       -77.6394   26.4139  -73.3005 H         1 UNK         0.0900 
     68 H68       -76.7172   26.1525  -71.8116 H         1 UNK         0.0900 
     69 H69       -76.8900   24.8529  -72.9989 H         1 UNK         0.0900 
     70 H70       -79.4617   27.0913  -71.8658 H         1 UNK         0.2959 
     71 H71       -80.7854   25.0359  -70.2615 H         1 UNK         0.1079 
     72 H72       -82.4309   26.6970  -69.7043 H         1 UNK         0.0837 
     73 H73       -81.9690   27.7560  -70.9960 H         1 UNK         0.0837 
     74 H74       -79.7392   30.1845  -69.2642 H         1 UNK         0.0685 
     75 H75       -81.1977   29.9314  -70.1828 H         1 UNK         0.0685 
     76 H76       -81.0699   29.2459  -72.5489 H         1 UNK         0.1434 
     77 H77       -77.2168   29.1442  -74.4349 H         1 UNK         0.1329 
     78 H78       -77.5111   29.5096  -70.1750 H         1 UNK         0.1335 
     79 H79       -75.3814   28.7937  -71.3088 H         1 UNK         0.0680 
     80 H80       -75.2245   28.9024  -73.0482 H         1 UNK         0.0680 
     81 H81       -73.2686   29.7913  -71.0959 H         1 UNK         0.1032 
     82 H82       -73.2770   31.4353  -70.5289 H         1 UNK         0.1032 
     83 H83       -72.4271   32.2499  -72.7080 H         1 UNK         0.0461 
     84 H84       -70.3884   29.3614  -72.8489 H         1 UNK         0.3453 
     85 H85       -69.1781   29.9844  -71.7492 H         1 UNK         0.3453 
     86 H86       -73.0250   29.6062  -73.6698 H         1 UNK         0.2984 
     87 H87       -72.7602   30.0484  -76.6479 H         1 UNK         0.0554 
     88 H88       -70.4207   30.5224  -77.2969 H         1 UNK         0.0847 
     89 H89       -70.8087   28.8517  -77.6667 H         1 UNK         0.0847 
     90 H90       -69.8319   29.2374  -76.2510 H         1 UNK         0.0847 
     91 H91       -73.2441   28.0012  -76.0382 H         1 UNK         0.3141 
     92 H92       -71.7098   25.5032  -73.9706 H         1 UNK         0.0743 
     93 H93       -73.5863   26.6339  -72.7592 H         1 UNK         0.0784 
     94 H94       -74.5032   26.7451  -74.2568 H         1 UNK         0.0784 
     95 H95       -74.1345   25.1710  -73.5620 H         1 UNK         0.0784 
     96 H96       -73.6151   25.2613  -76.0688 H         1 UNK         0.3213 
     97 H97       -71.3116   24.6813  -78.7488 H         1 UNK         0.0855 
     98 H98       -73.2780   22.8798  -77.2390 H         1 UNK         0.0814 
     99 H99       -71.6120   22.4982  -77.6370 H         1 UNK         0.0814 
    100 H100      -72.7950   22.6771  -78.9228 H         1 UNK         0.0814 
    101 H101      -74.2097   24.9647  -78.3112 H         1 UNK         0.3105 
    102 H102      -74.3553   28.2739  -79.4898 H         1 UNK         0.0547 
    103 H103      -74.1202   27.1271  -81.6937 H         1 UNK         0.0837 
    104 H104      -75.1232   25.7984  -81.1307 H         1 UNK         0.0837 
    105 H105      -75.8080   27.4148  -81.3101 H         1 UNK         0.0837 
    106 H106      -76.3774   26.2877  -79.0411 H         1 UNK         0.3020 
    107 H107      -76.6858   26.8132  -75.5350 H         1 UNK         0.1245 
    108 H108      -78.5170   27.6130  -77.8592 H         1 UNK         0.0781 
    109 H109      -77.8648   28.7370  -76.7034 H         1 UNK         0.0781 
    110 H110      -80.9778   29.0938  -74.8879 H         1 UNK         0.0836 
    111 H111      -79.5847   29.7780  -75.6653 H         1 UNK         0.0836 
    112 H112      -78.2364   25.1675  -77.1443 H         1 UNK         0.3022 
    113 H113      -76.8211   22.7259  -78.0684 H         1 UNK         0.0747 
    114 H114      -76.6887   20.8167  -76.4328 H         1 UNK         0.0793 
    115 H115      -76.3591   21.9659  -75.1369 H         1 UNK         0.0793 
    116 H116      -75.2214   21.7754  -76.4599 H         1 UNK         0.0793 
    117 H117      -78.9859   22.5012  -77.6569 H         1 UNK         0.3047 
    118 H118      -81.0023   22.8913  -76.8039 H         1 UNK         0.0822 
    119 H119      -82.1754   21.3326  -75.2201 H         1 UNK         0.0807 
    120 H120      -80.7879   21.3689  -74.1334 H         1 UNK         0.0807 
    121 H121      -80.6418   20.6426  -75.7295 H         1 UNK         0.0807 
    122 H122      -80.6331   24.3433  -74.3326 H         1 UNK         0.2946 
    123 H123      -82.6131   26.5431  -75.0771 H         1 UNK         0.1144 
    124 H124      -84.9368   25.8079  -74.8906 H         1 UNK         0.0793 
    125 H125      -84.5187   26.7172  -73.4497 H         1 UNK         0.0793 
    126 H126      -84.6139   24.9566  -73.3910 H         1 UNK         0.0793 
    127 H127      -81.2854   26.7184  -73.3367 H         1 UNK         0.2896 
@<TRIPOS>BOND
     1    1    2 1    
     2    1   67 1    
     3    1   68 1    
     4    1   69 1    
     5    2    3 2    
     6    2    4 am   BACKBONE|DICT|INTERRES
     7    4    5 1    
     8    4   70 1    
     9    5    6 1    
    10    5   65 1    
    11    5   71 1    
    12    6    7 1    
    13    6   72 1    
    14    6   73 1    
    15    7    8 1    
    16    8    9 1    
    17    8   74 1    
    18    8   75 1    
    19    9   10 ar   
    20    9   14 ar   
    21   10   11 ar   
    22   10   76 1    
    23   11   12 ar   
    24   11   48 1    
    25   12   13 ar   
    26   12   77 1    
    27   13   14 ar   
    28   13   15 1    
    29   14   78 1    
    30   15   16 1    
    31   15   79 1    
    32   15   80 1    
    33   16   17 1    
    34   17   18 1    
    35   17   81 1    
    36   17   82 1    
    37   18   19 1    
    38   18   22 1    
    39   18   83 1    
    40   19   20 am   BACKBONE|DICT|INTERRES
    41   19   21 2    
    42   20   84 1    
    43   20   85 1    
    44   22   23 am   BACKBONE|DICT|INTERRES
    45   22   86 1    
    46   23   24 2    
    47   23   25 1    
    48   25   26 1    
    49   25   27 1    
    50   25   87 1    
    51   26   88 1    
    52   26   89 1    
    53   26   90 1    
    54   27   28 am   BACKBONE|DICT|INTERRES
    55   27   91 1    
    56   28   29 2    
    57   28   30 1    
    58   30   31 1    
    59   30   32 1    
    60   30   92 1    
    61   31   93 1    
    62   31   94 1    
    63   31   95 1    
    64   32   33 am   BACKBONE|DICT|INTERRES
    65   32   96 1    
    66   33   34 2    
    67   33   35 1    
    68   35   36 1    
    69   35   37 1    
    70   35   97 1    
    71   36   98 1    
    72   36   99 1    
    73   36  100 1    
    74   37   38 am   BACKBONE|DICT|INTERRES
    75   37  101 1    
    76   38   39 2    
    77   38   40 1    
    78   40   41 1    
    79   40   42 1    
    80   40  102 1    
    81   41  103 1    
    82   41  104 1    
    83   41  105 1    
    84   42   43 am   BACKBONE|DICT|INTERRES
    85   42  106 1    
    86   43   44 2    
    87   43   45 1    
    88   45   46 1    
    89   45   49 1    
    90   45  107 1    
    91   46   47 1    
    92   46  108 1    
    93   46  109 1    
    94   47   48 1    
    95   48  110 1    
    96   48  111 1    
    97   49   50 am   BACKBONE|DICT|INTERRES
    98   49  112 1    
    99   50   51 2    
   100   50   52 1    
   101   52   53 1    
   102   52   54 1    
   103   52  113 1    
   104   53  114 1    
   105   53  115 1    
   106   53  116 1    
   107   54   55 am   BACKBONE|DICT|INTERRES
   108   54  117 1    
   109   55   56 2    
   110   55   57 1    
   111   57   58 1    
   112   57   59 1    
   113   57  118 1    
   114   58  119 1    
   115   58  120 1    
   116   58  121 1    
   117   59   60 am   BACKBONE|DICT|INTERRES
   118   59  122 1    
   119   60   61 2    
   120   60   62 1    
   121   62   63 1    
   122   62   64 1    
   123   62  123 1    
   124   63  124 1    
   125   63  125 1    
   126   63  126 1    
   127   64   65 am   BACKBONE|DICT|INTERRES
   128   64  127 1    
   129   65   66 2    
@<TRIPOS>SUBSTRUCTURE
     1 UNK         1 GROUP             0       ****    0 ROOT    
