@<TRIPOS>MOLECULE
3R135
127   129    1
SMALL
USER_CHARGES


@<TRIPOS>ATOM
      1 CA        -84.3048   27.8197  -71.2945 C.3       0 UNK        -0.1998 
      2 C         -83.1063   27.6457  -72.2143 C.2       0 UNK         0.4909 
      3 O         -82.1544   26.9573  -71.8465 O.2       0 UNK        -0.5240 
      4 N         -83.1510   28.2664  -73.4022 N.am      1 UNK        -0.4739 
      5 CA        -82.1389   28.2666  -74.4735 C.3       1 UNK         0.0864 
      6 C6        -80.7503   28.8158  -74.0499 C.3       11 UNK        -0.0881 
      7 S7        -80.8219   30.5587  -73.5045 S.3       11 UNK        -0.2682 
      8 C8        -80.6244   30.4307  -71.6959 C.3       11 UNK         0.0289 
      9 C9        -79.2402   29.9357  -71.3046 C.ar      11 UNK        -0.0687 
     10 C10       -79.0558   28.6134  -70.8908 C.ar      11 UNK        -0.0823 
     11 C11       -77.7779   28.1376  -70.5847 C.ar      11 UNK        -0.0830 
     12 C12       -76.6888   29.0123  -70.6382 C.ar      11 UNK        -0.1021 
     13 C13       -76.8598   30.3393  -71.0446 C.ar      11 UNK        -0.0753 
     14 C14       -78.1397   30.7950  -71.3753 C.ar      11 UNK        -0.0933 
     15 C15       -75.6650   31.2779  -71.1479 C.3       11 UNK         0.0166 
     16 S16       -74.7596   31.0394  -72.7126 S.3       11 UNK        -0.2615 
     17 C17       -73.6482   29.6489  -72.2991 C.3       11 UNK        -0.0865 
     18 CA        -72.1607   29.9802  -72.5869 C.3       10 UNK         0.0862 
     19 C         -71.2135   28.9535  -71.8944 C.2       10 UNK         0.5551 
     20 N         -70.3686   28.2262  -72.6150 N.am      10 UNK        -0.7319 
     21 O         -71.2418   28.8224  -70.6732 O.2       10 UNK        -0.5018 
     22 N         -71.9268   30.1525  -74.0298 N.am      10 UNK        -0.4509 
     23 C         -70.8927   30.7949  -74.5821 C.2       10 UNK         0.4899 
     24 O         -70.0334   31.3952  -73.9348 O.2       10 UNK        -0.4839 
     25 CA        -70.7861   30.7011  -76.1178 C.3       9 UNK         0.0222 
     26 CB        -69.6578   31.5806  -76.6889 C.3       9 UNK        -0.1966 
     27 N         -70.5763   29.3139  -76.5483 N.am      9 UNK        -0.4218 
     28 C         -71.5293   28.3751  -76.6129 C.2       9 UNK         0.5020 
     29 O         -72.7174   28.5941  -76.3647 O.2       9 UNK        -0.5274 
     30 CA        -71.0669   26.9560  -76.9626 C.3       8 UNK         0.0270 
     31 CB        -70.3067   26.3129  -75.7880 C.3       8 UNK        -0.1976 
     32 N         -72.2313   26.1346  -77.2812 N.am      8 UNK        -0.4313 
     33 C         -72.2804   25.1996  -78.2373 C.2       8 UNK         0.5041 
     34 O         -71.3120   24.8935  -78.9355 O.2       8 UNK        -0.5577 
     35 CA        -73.6163   24.4621  -78.4647 C.3       7 UNK         0.0284 
     36 CB        -73.5242   23.0227  -77.9295 C.3       7 UNK        -0.1958 
     37 N         -74.7887   25.1117  -77.8718 N.am      7 UNK        -0.4454 
     38 C         -75.2773   26.3127  -78.2084 C.2       7 UNK         0.5089 
     39 O         -74.8167   27.0036  -79.1177 O.2       7 UNK        -0.5125 
     40 CA        -76.4747   26.8447  -77.3970 C.3       6 UNK         0.0408 
     41 CB        -77.7571   26.8028  -78.2426 C.3       6 UNK        -0.1791 
     42 N         -76.7230   26.1497  -76.1290 N.am      6 UNK        -0.4762 
     43 C         -75.9081   26.1416  -75.0620 C.2       6 UNK         0.5007 
     44 O         -74.7907   26.6553  -75.0426 O.2       6 UNK        -0.5032 
     45 CA        -76.4352   25.4149  -73.8131 C.3       5 UNK         0.0783 
     46 C46       -77.5011   26.2869  -73.1086 C.3       11 UNK        -0.0857 
     47 S47       -78.1629   25.5441  -71.5748 S.3       11 UNK        -0.2512 
     48 C48       -77.5552   26.6641  -70.2619 C.3       11 UNK         0.0225 
     49 N         -76.9388   24.0926  -74.1873 N.am      5 UNK        -0.4615 
     50 C         -76.1620   23.0222  -74.3996 C.2       4 UNK         0.5053 
     51 O         -74.9441   23.0157  -74.2225 O.2       4 UNK        -0.5105 
     52 CA        -76.8513   21.7427  -74.9072 C.3       4 UNK         0.0263 
     53 CB        -77.2632   20.8513  -73.7247 C.3       4 UNK        -0.1981 
     54 N         -78.0243   22.0093  -75.7432 N.am      4 UNK        -0.4224 
     55 C         -77.9863   22.5925  -76.9503 C.2       3 UNK         0.4895 
     56 O         -76.9480   22.9190  -77.5226 O.2       3 UNK        -0.5091 
     57 CA        -79.3402   22.9060  -77.6114 C.3       3 UNK         0.0250 
     58 CB        -79.8061   21.7201  -78.4710 C.3       3 UNK        -0.1996 
     59 N         -80.3972   23.2672  -76.6585 N.am      3 UNK        -0.4254 
     60 C         -80.3409   24.2994  -75.8048 C.2       2 UNK         0.5004 
     61 O         -79.3669   25.0494  -75.7006 O.2       2 UNK        -0.5226 
     62 CA        -81.5442   24.4660  -74.8627 C.3       2 UNK         0.0269 
     63 CB        -81.3743   23.5642  -73.6288 C.3       2 UNK        -0.1926 
     64 N         -81.7213   25.8449  -74.4064 N.am      2 UNK        -0.4687 
     65 C         -82.0137   26.8988  -75.1775 C.2       1 UNK         0.5165 
     66 O         -82.2151   26.8221  -76.3908 O.2       1 UNK        -0.5079 
     67 H67       -84.7527   26.8507  -71.0758 H         1 UNK         0.0900 
     68 H68       -85.0710   28.4564  -71.7365 H         1 UNK         0.0900 
     69 H69       -83.9909   28.2704  -70.3534 H         1 UNK         0.0900 
     70 H70       -83.9818   28.7966  -73.6264 H         1 UNK         0.2959 
     71 H71       -82.5292   28.9484  -75.2314 H         1 UNK         0.1079 
     72 H72       -80.3032   28.1908  -73.2780 H         1 UNK         0.0837 
     73 H73       -80.0575   28.7757  -74.8929 H         1 UNK         0.0837 
     74 H74       -81.3982   29.7820  -71.2857 H         1 UNK         0.0685 
     75 H75       -80.7914   31.4147  -71.2556 H         1 UNK         0.0685 
     76 H76       -79.8993   27.9371  -70.8535 H         1 UNK         0.1434 
     77 H77       -75.7021   28.6482  -70.3930 H         1 UNK         0.1329 
     78 H78       -78.2801   31.8152  -71.7057 H         1 UNK         0.1335 
     79 H79       -76.0025   32.3144  -71.1009 H         1 UNK         0.0680 
     80 H80       -74.9979   31.1428  -70.2953 H         1 UNK         0.0680 
     81 H81       -73.9632   28.7656  -72.8587 H         1 UNK         0.1032 
     82 H82       -73.7747   29.3984  -71.2458 H         1 UNK         0.1032 
     83 H83       -71.9407   30.9365  -72.1083 H         1 UNK         0.0461 
     84 H84       -70.3217   28.3449  -73.6122 H         1 UNK         0.3453 
     85 H85       -69.7593   27.5721  -72.1497 H         1 UNK         0.3453 
     86 H86       -72.5546   29.6527  -74.6521 H         1 UNK         0.2984 
     87 H87       -71.7292   31.0628  -76.5334 H         1 UNK         0.0554 
     88 H88       -69.6383   31.5436  -77.7783 H         1 UNK         0.0847 
     89 H89       -68.6770   31.2718  -76.3248 H         1 UNK         0.0847 
     90 H90       -69.7962   32.6249  -76.4054 H         1 UNK         0.0847 
     91 H91       -69.6218   29.0472  -76.7452 H         1 UNK         0.3141 
     92 H92       -70.4086   27.0260  -77.8314 H         1 UNK         0.0743 
     93 H93       -70.9315   26.2421  -74.8963 H         1 UNK         0.0784 
     94 H94       -69.9735   25.3058  -76.0397 H         1 UNK         0.0784 
     95 H95       -69.4177   26.8870  -75.5245 H         1 UNK         0.0784 
     96 H96       -73.0798   26.3925  -76.7870 H         1 UNK         0.3213 
     97 H97       -73.7757   24.4176  -79.5439 H         1 UNK         0.0855 
     98 H98       -73.4325   23.0023  -76.8425 H         1 UNK         0.0814 
     99 H99       -72.6569   22.5041  -78.3406 H         1 UNK         0.0814 
    100 H100      -74.4032   22.4396  -78.2035 H         1 UNK         0.0814 
    101 H101      -75.2862   24.5896  -77.1625 H         1 UNK         0.3105 
    102 H102      -76.2590   27.8879  -77.1573 H         1 UNK         0.0547 
    103 H103      -77.6410   27.3828  -79.1591 H         1 UNK         0.0837 
    104 H104      -78.0096   25.7832  -78.5327 H         1 UNK         0.0837 
    105 H105      -78.6074   27.2181  -77.7011 H         1 UNK         0.0837 
    106 H106      -77.6327   25.7010  -76.0350 H         1 UNK         0.3020 
    107 H107      -75.5947   25.2898  -73.1262 H         1 UNK         0.1245 
    108 H108      -77.0791   27.2698  -72.9000 H         1 UNK         0.0781 
    109 H109      -78.3510   26.4728  -73.7669 H         1 UNK         0.0781 
    110 H110      -78.0623   26.4224  -69.3269 H         1 UNK         0.0836 
    111 H111      -76.4960   26.4593  -70.0987 H         1 UNK         0.0836 
    112 H112      -77.9252   24.0417  -74.4038 H         1 UNK         0.3022 
    113 H113      -76.1249   21.1966  -75.5133 H         1 UNK         0.0747 
    114 H114      -77.6825   19.9050  -74.0671 H         1 UNK         0.0793 
    115 H115      -76.4025   20.6141  -73.0977 H         1 UNK         0.0793 
    116 H116      -78.0042   21.3387  -73.0894 H         1 UNK         0.0793 
    117 H117      -78.9252   21.7690  -75.3572 H         1 UNK         0.3047 
    118 H118      -79.1898   23.7625  -78.2704 H         1 UNK         0.0822 
    119 H119      -80.7118   21.9636  -79.0268 H         1 UNK         0.0807 
    120 H120      -80.0094   20.8356  -77.8661 H         1 UNK         0.0807 
    121 H121      -79.0443   21.4463  -79.2026 H         1 UNK         0.0807 
    122 H122      -81.2262   22.6899  -76.6693 H         1 UNK         0.2946 
    123 H123      -82.4494   24.1745  -75.3999 H         1 UNK         0.1144 
    124 H124      -82.2325   23.6418  -72.9607 H         1 UNK         0.0793 
    125 H125      -80.4833   23.8295  -73.0574 H         1 UNK         0.0793 
    126 H126      -81.2816   22.5152  -73.9126 H         1 UNK         0.0793 
    127 H127      -81.6162   26.0216  -73.4106 H         1 UNK         0.2896 
@<TRIPOS>BOND
     1    1    2 1    
     2    1   67 1    
     3    1   68 1    
     4    1   69 1    
     5    2    3 2    
     6    2    4 am   BACKBONE|DICT|INTERRES
     7    4    5 1    
     8    4   70 1    
     9    5    6 1    
    10    5   65 1    
    11    5   71 1    
    12    6    7 1    
    13    6   72 1    
    14    6   73 1    
    15    7    8 1    
    16    8    9 1    
    17    8   74 1    
    18    8   75 1    
    19    9   10 ar   
    20    9   14 ar   
    21   10   11 ar   
    22   10   76 1    
    23   11   12 ar   
    24   11   48 1    
    25   12   13 ar   
    26   12   77 1    
    27   13   14 ar   
    28   13   15 1    
    29   14   78 1    
    30   15   16 1    
    31   15   79 1    
    32   15   80 1    
    33   16   17 1    
    34   17   18 1    
    35   17   81 1    
    36   17   82 1    
    37   18   19 1    
    38   18   22 1    
    39   18   83 1    
    40   19   20 am   BACKBONE|DICT|INTERRES
    41   19   21 2    
    42   20   84 1    
    43   20   85 1    
    44   22   23 am   BACKBONE|DICT|INTERRES
    45   22   86 1    
    46   23   24 2    
    47   23   25 1    
    48   25   26 1    
    49   25   27 1    
    50   25   87 1    
    51   26   88 1    
    52   26   89 1    
    53   26   90 1    
    54   27   28 am   BACKBONE|DICT|INTERRES
    55   27   91 1    
    56   28   29 2    
    57   28   30 1    
    58   30   31 1    
    59   30   32 1    
    60   30   92 1    
    61   31   93 1    
    62   31   94 1    
    63   31   95 1    
    64   32   33 am   BACKBONE|DICT|INTERRES
    65   32   96 1    
    66   33   34 2    
    67   33   35 1    
    68   35   36 1    
    69   35   37 1    
    70   35   97 1    
    71   36   98 1    
    72   36   99 1    
    73   36  100 1    
    74   37   38 am   BACKBONE|DICT|INTERRES
    75   37  101 1    
    76   38   39 2    
    77   38   40 1    
    78   40   41 1    
    79   40   42 1    
    80   40  102 1    
    81   41  103 1    
    82   41  104 1    
    83   41  105 1    
    84   42   43 am   BACKBONE|DICT|INTERRES
    85   42  106 1    
    86   43   44 2    
    87   43   45 1    
    88   45   46 1    
    89   45   49 1    
    90   45  107 1    
    91   46   47 1    
    92   46  108 1    
    93   46  109 1    
    94   47   48 1    
    95   48  110 1    
    96   48  111 1    
    97   49   50 am   BACKBONE|DICT|INTERRES
    98   49  112 1    
    99   50   51 2    
   100   50   52 1    
   101   52   53 1    
   102   52   54 1    
   103   52  113 1    
   104   53  114 1    
   105   53  115 1    
   106   53  116 1    
   107   54   55 am   BACKBONE|DICT|INTERRES
   108   54  117 1    
   109   55   56 2    
   110   55   57 1    
   111   57   58 1    
   112   57   59 1    
   113   57  118 1    
   114   58  119 1    
   115   58  120 1    
   116   58  121 1    
   117   59   60 am   BACKBONE|DICT|INTERRES
   118   59  122 1    
   119   60   61 2    
   120   60   62 1    
   121   62   63 1    
   122   62   64 1    
   123   62  123 1    
   124   63  124 1    
   125   63  125 1    
   126   63  126 1    
   127   64   65 am   BACKBONE|DICT|INTERRES
   128   64  127 1    
   129   65   66 2    
@<TRIPOS>SUBSTRUCTURE
     1 UNK         1 GROUP             0       ****    0 ROOT    
