@<TRIPOS>MOLECULE
3R135
127   129    1
SMALL
USER_CHARGES


@<TRIPOS>ATOM
      1 CA        -84.7817   27.3863  -70.2185 C.3       0 UNK        -0.1998 
      2 C         -84.2094   27.9902  -71.4922 C.2       0 UNK         0.4909 
      3 O         -84.9507   28.2134  -72.4497 O.2       0 UNK        -0.5240 
      4 N         -82.8967   28.2599  -71.5084 N.am      1 UNK        -0.4739 
      5 CA        -82.1666   28.8113  -72.6580 C.3       1 UNK         0.0864 
      6 C6        -80.7754   29.3314  -72.2254 C.3       11 UNK        -0.0881 
      7 S7        -80.0796   30.5668  -73.3748 S.3       11 UNK        -0.2682 
      8 C8        -78.6248   29.6894  -74.0357 C.3       11 UNK         0.0289 
      9 C9        -77.6266   29.3267  -72.9437 C.ar      11 UNK        -0.0687 
     10 C10       -77.3584   27.9851  -72.6573 C.ar      11 UNK        -0.0823 
     11 C11       -76.4469   27.6390  -71.6543 C.ar      11 UNK        -0.0830 
     12 C12       -75.8184   28.6517  -70.9221 C.ar      11 UNK        -0.1021 
     13 C13       -76.1013   29.9969  -71.1783 C.ar      11 UNK        -0.0753 
     14 C14       -76.9915   30.3286  -72.2036 C.ar      11 UNK        -0.0933 
     15 C15       -75.4963   31.0841  -70.3010 C.3       11 UNK         0.0166 
     16 S16       -73.7920   31.5023  -70.7762 S.3       11 UNK        -0.2615 
     17 C17       -74.0455   32.5255  -72.2720 C.3       11 UNK        -0.0865 
     18 CA        -73.4298   31.9115  -73.5550 C.3       10 UNK         0.0862 
     19 C         -71.8717   31.9479  -73.5244 C.2       10 UNK         0.5551 
     20 N         -71.1803   30.8187  -73.4220 N.am      10 UNK        -0.7319 
     21 O         -71.2840   33.0240  -73.6048 O.2       10 UNK        -0.5018 
     22 N         -74.0131   30.5965  -73.8523 N.am      10 UNK        -0.4509 
     23 C         -73.9244   29.9748  -75.0318 C.2       10 UNK         0.4899 
     24 O         -73.4458   30.4824  -76.0480 O.2       10 UNK        -0.4839 
     25 CA        -74.4290   28.5237  -75.0708 C.3       9 UNK         0.0222 
     26 CB        -75.3953   28.3126  -76.2502 C.3       9 UNK        -0.1966 
     27 N         -73.3145   27.5735  -75.1538 N.am      9 UNK        -0.4218 
     28 C         -72.3543   27.4355  -74.2213 C.2       9 UNK         0.5020 
     29 O         -72.3110   28.1055  -73.1878 O.2       9 UNK        -0.5274 
     30 CA        -71.2432   26.3939  -74.4498 C.3       8 UNK         0.0270 
     31 CB        -71.2959   25.2854  -73.3844 C.3       8 UNK        -0.1976 
     32 N         -71.2830   25.7882  -75.7811 N.am      8 UNK        -0.4313 
     33 C         -70.6824   26.3095  -76.8608 C.2       8 UNK         0.5041 
     34 O         -69.9950   27.3311  -76.8299 O.2       8 UNK        -0.5577 
     35 CA        -70.8713   25.5862  -78.2085 C.3       7 UNK         0.0284 
     36 CB        -69.6163   24.7700  -78.5597 C.3       7 UNK        -0.1958 
     37 N         -72.0441   24.7091  -78.2698 N.am      7 UNK        -0.4454 
     38 C         -73.3160   25.1132  -78.1559 C.2       7 UNK         0.5089 
     39 O         -73.6395   26.2864  -77.9722 O.2       7 UNK        -0.5125 
     40 CA        -74.4145   24.0353  -78.2211 C.3       6 UNK         0.0408 
     41 CB        -73.8961   22.6124  -78.5295 C.3       6 UNK        -0.1791 
     42 N         -75.2399   24.0106  -77.0100 N.am      6 UNK        -0.4762 
     43 C         -74.8223   23.8747  -75.7384 C.2       6 UNK         0.5007 
     44 O         -73.6337   23.8262  -75.4174 O.2       6 UNK        -0.5032 
     45 CA        -75.9133   23.7233  -74.6485 C.3       5 UNK         0.0783 
     46 C46       -76.1963   25.0607  -73.9207 C.3       11 UNK        -0.0857 
     47 S47       -75.0601   25.3884  -72.5347 S.3       11 UNK        -0.2512 
     48 C48       -76.1743   26.1755  -71.3261 C.3       11 UNK         0.0225 
     49 N         -77.1597   23.1661  -75.1832 N.am      5 UNK        -0.4615 
     50 C         -77.3104   21.9375  -75.6972 C.2       4 UNK         0.5053 
     51 O         -76.4435   21.0654  -75.6438 O.2       4 UNK        -0.5105 
     52 CA        -78.6399   21.6332  -76.4177 C.3       4 UNK         0.0263 
     53 CB        -79.5157   20.7086  -75.5561 C.3       4 UNK        -0.1981 
     54 N         -79.4225   22.8208  -76.7840 N.am      4 UNK        -0.4224 
     55 C         -79.0294   23.8156  -77.5958 C.2       3 UNK         0.4895 
     56 O         -77.9456   23.8329  -78.1786 O.2       3 UNK        -0.5091 
     57 CA        -79.9815   25.0158  -77.7510 C.3       3 UNK         0.0250 
     58 CB        -80.7079   24.9523  -79.1041 C.3       3 UNK        -0.1996 
     59 N         -80.9730   25.1243  -76.6745 N.am      3 UNK        -0.4254 
     60 C         -80.6954   25.4416  -75.4020 C.2       2 UNK         0.5004 
     61 O         -79.5617   25.6876  -74.9818 O.2       2 UNK        -0.5226 
     62 CA        -81.8806   25.3919  -74.4239 C.3       2 UNK         0.0269 
     63 CB        -81.8558   24.0754  -73.6293 C.3       2 UNK        -0.1926 
     64 N         -81.8953   26.5140  -73.4850 N.am      2 UNK        -0.4687 
     65 C         -82.0728   27.8001  -73.8229 C.2       1 UNK         0.5165 
     66 O         -82.2147   28.1886  -74.9837 O.2       1 UNK        -0.5079 
     67 H67       -85.2245   26.4136  -70.4311 H         1 UNK         0.0900 
     68 H68       -85.5589   28.0334  -69.8129 H         1 UNK         0.0900 
     69 H69       -84.0190   27.2514  -69.4518 H         1 UNK         0.0900 
     70 H70       -82.3436   28.0637  -70.6860 H         1 UNK         0.2959 
     71 H71       -82.7485   29.6618  -73.0217 H         1 UNK         0.1079 
     72 H72       -80.8526   29.8323  -71.2590 H         1 UNK         0.0837 
     73 H73       -80.0828   28.5038  -72.0673 H         1 UNK         0.0837 
     74 H74       -78.9600   28.7998  -74.5724 H         1 UNK         0.0685 
     75 H75       -78.1315   30.3260  -74.7713 H         1 UNK         0.0685 
     76 H76       -77.8689   27.2120  -73.2141 H         1 UNK         0.1434 
     77 H77       -75.1274   28.3946  -70.1307 H         1 UNK         0.1329 
     78 H78       -77.2208   31.3657  -72.4062 H         1 UNK         0.1335 
     79 H79       -76.1138   31.9837  -70.3156 H         1 UNK         0.0680 
     80 H80       -75.4911   30.7440  -69.2643 H         1 UNK         0.0680 
     81 H81       -73.6273   33.5166  -72.0857 H         1 UNK         0.1032 
     82 H82       -75.1117   32.6927  -72.4273 H         1 UNK         0.1032 
     83 H83       -73.7162   32.5678  -74.3792 H         1 UNK         0.0461 
     84 H84       -71.6610   29.9290  -73.3245 H         1 UNK         0.3453 
     85 H85       -70.1741   30.8538  -73.4052 H         1 UNK         0.3453 
     86 H86       -74.3737   30.0889  -73.0551 H         1 UNK         0.2984 
     87 H87       -74.9692   28.3090  -74.1478 H         1 UNK         0.0554 
     88 H88       -75.7354   27.2810  -76.3226 H         1 UNK         0.0847 
     89 H89       -76.2802   28.9406  -76.1428 H         1 UNK         0.0847 
     90 H90       -74.9303   28.5674  -77.2035 H         1 UNK         0.0847 
     91 H91       -73.2548   27.0257  -76.0047 H         1 UNK         0.3141 
     92 H92       -70.2927   26.9172  -74.3250 H         1 UNK         0.0743 
     93 H93       -71.2104   25.7046  -72.3810 H         1 UNK         0.0784 
     94 H94       -72.2320   24.7297  -73.4212 H         1 UNK         0.0784 
     95 H95       -70.4784   24.5752  -73.5089 H         1 UNK         0.0784 
     96 H96       -71.8684   24.9653  -75.8837 H         1 UNK         0.3213 
     97 H97       -71.0003   26.3592  -78.9693 H         1 UNK         0.0855 
     98 H98       -68.7264   25.4012  -78.5554 H         1 UNK         0.0814 
     99 H99       -69.6922   24.3300  -79.5543 H         1 UNK         0.0814 
    100 H100      -69.4460   23.9635  -77.8453 H         1 UNK         0.0814 
    101 H101      -71.8666   23.7231  -78.3950 H         1 UNK         0.3105 
    102 H102      -75.0777   24.3283  -79.0362 H         1 UNK         0.0547 
    103 H103      -73.3515   22.5820  -79.4742 H         1 UNK         0.0837 
    104 H104      -73.2386   22.2326  -77.7464 H         1 UNK         0.0837 
    105 H105      -74.7260   21.9115  -78.6229 H         1 UNK         0.0837 
    106 H106      -76.2398   24.0384  -77.1867 H         1 UNK         0.3020 
    107 H107      -75.5349   22.9998  -73.9225 H         1 UNK         0.1245 
    108 H108      -76.1864   25.9076  -74.6055 H         1 UNK         0.0781 
    109 H109      -77.2058   25.0332  -73.5085 H         1 UNK         0.0781 
    110 H110      -75.7162   26.0943  -70.3392 H         1 UNK         0.0836 
    111 H111      -77.1133   25.6240  -71.2614 H         1 UNK         0.0836 
    112 H112      -77.9363   23.8096  -75.2556 H         1 UNK         0.3022 
    113 H113      -78.3889   21.1090  -77.3421 H         1 UNK         0.0747 
    114 H114      -80.4184   20.4061  -76.0874 H         1 UNK         0.0793 
    115 H115      -78.9789   19.7963  -75.2913 H         1 UNK         0.0793 
    116 H116      -79.8172   21.1905  -74.6251 H         1 UNK         0.0793 
    117 H117      -80.3357   22.8992  -76.3625 H         1 UNK         0.3047 
    118 H118      -79.3668   25.9186  -77.7334 H         1 UNK         0.0822 
    119 H119      -81.3237   25.8372  -79.2664 H         1 UNK         0.0807 
    120 H120      -81.3520   24.0750  -79.1777 H         1 UNK         0.0807 
    121 H121      -79.9944   24.9022  -79.9281 H         1 UNK         0.0807 
    122 H122      -81.9314   24.9327  -76.9309 H         1 UNK         0.2946 
    123 H123      -82.8110   25.4343  -74.9950 H         1 UNK         0.1144 
    124 H124      -82.7136   23.9980  -72.9610 H         1 UNK         0.0793 
    125 H125      -80.9509   23.9854  -73.0263 H         1 UNK         0.0793 
    126 H126      -81.8901   23.2125  -74.2957 H         1 UNK         0.0793 
    127 H127      -81.7840   26.2889  -72.5077 H         1 UNK         0.2896 
@<TRIPOS>BOND
     1    1    2 1    
     2    1   67 1    
     3    1   68 1    
     4    1   69 1    
     5    2    3 2    
     6    2    4 am   BACKBONE|DICT|INTERRES
     7    4    5 1    
     8    4   70 1    
     9    5    6 1    
    10    5   65 1    
    11    5   71 1    
    12    6    7 1    
    13    6   72 1    
    14    6   73 1    
    15    7    8 1    
    16    8    9 1    
    17    8   74 1    
    18    8   75 1    
    19    9   10 ar   
    20    9   14 ar   
    21   10   11 ar   
    22   10   76 1    
    23   11   12 ar   
    24   11   48 1    
    25   12   13 ar   
    26   12   77 1    
    27   13   14 ar   
    28   13   15 1    
    29   14   78 1    
    30   15   16 1    
    31   15   79 1    
    32   15   80 1    
    33   16   17 1    
    34   17   18 1    
    35   17   81 1    
    36   17   82 1    
    37   18   19 1    
    38   18   22 1    
    39   18   83 1    
    40   19   20 am   BACKBONE|DICT|INTERRES
    41   19   21 2    
    42   20   84 1    
    43   20   85 1    
    44   22   23 am   BACKBONE|DICT|INTERRES
    45   22   86 1    
    46   23   24 2    
    47   23   25 1    
    48   25   26 1    
    49   25   27 1    
    50   25   87 1    
    51   26   88 1    
    52   26   89 1    
    53   26   90 1    
    54   27   28 am   BACKBONE|DICT|INTERRES
    55   27   91 1    
    56   28   29 2    
    57   28   30 1    
    58   30   31 1    
    59   30   32 1    
    60   30   92 1    
    61   31   93 1    
    62   31   94 1    
    63   31   95 1    
    64   32   33 am   BACKBONE|DICT|INTERRES
    65   32   96 1    
    66   33   34 2    
    67   33   35 1    
    68   35   36 1    
    69   35   37 1    
    70   35   97 1    
    71   36   98 1    
    72   36   99 1    
    73   36  100 1    
    74   37   38 am   BACKBONE|DICT|INTERRES
    75   37  101 1    
    76   38   39 2    
    77   38   40 1    
    78   40   41 1    
    79   40   42 1    
    80   40  102 1    
    81   41  103 1    
    82   41  104 1    
    83   41  105 1    
    84   42   43 am   BACKBONE|DICT|INTERRES
    85   42  106 1    
    86   43   44 2    
    87   43   45 1    
    88   45   46 1    
    89   45   49 1    
    90   45  107 1    
    91   46   47 1    
    92   46  108 1    
    93   46  109 1    
    94   47   48 1    
    95   48  110 1    
    96   48  111 1    
    97   49   50 am   BACKBONE|DICT|INTERRES
    98   49  112 1    
    99   50   51 2    
   100   50   52 1    
   101   52   53 1    
   102   52   54 1    
   103   52  113 1    
   104   53  114 1    
   105   53  115 1    
   106   53  116 1    
   107   54   55 am   BACKBONE|DICT|INTERRES
   108   54  117 1    
   109   55   56 2    
   110   55   57 1    
   111   57   58 1    
   112   57   59 1    
   113   57  118 1    
   114   58  119 1    
   115   58  120 1    
   116   58  121 1    
   117   59   60 am   BACKBONE|DICT|INTERRES
   118   59  122 1    
   119   60   61 2    
   120   60   62 1    
   121   62   63 1    
   122   62   64 1    
   123   62  123 1    
   124   63  124 1    
   125   63  125 1    
   126   63  126 1    
   127   64   65 am   BACKBONE|DICT|INTERRES
   128   64  127 1    
   129   65   66 2    
@<TRIPOS>SUBSTRUCTURE
     1 UNK         1 GROUP             0       ****    0 ROOT    
