@<TRIPOS>MOLECULE
3R135
127   129    1
SMALL
USER_CHARGES


@<TRIPOS>ATOM
      1 CA        -85.1604   29.5879  -74.1235 C.3       0 UNK        -0.1998 
      2 C         -83.8134   29.5064  -74.8259 C.2       0 UNK         0.4909 
      3 O         -83.7313   29.7776  -76.0240 O.2       0 UNK        -0.5240 
      4 N         -82.7589   29.1434  -74.0852 N.am      1 UNK        -0.4739 
      5 CA        -81.3927   28.9456  -74.5827 C.3       1 UNK         0.0864 
      6 C6        -80.3533   28.8735  -73.4308 C.3       11 UNK        -0.0881 
      7 S7        -80.8446   27.7758  -72.0496 S.3       11 UNK        -0.2682 
      8 C8        -80.1266   28.6445  -70.6225 C.3       11 UNK         0.0289 
      9 C9        -78.6218   28.4408  -70.5612 C.ar      11 UNK        -0.0687 
     10 C10       -78.1052   27.2487  -70.0485 C.ar      11 UNK        -0.0823 
     11 C11       -76.7251   27.0364  -69.9980 C.ar      11 UNK        -0.0830 
     12 C12       -75.8572   28.0343  -70.4527 C.ar      11 UNK        -0.1021 
     13 C13       -76.3638   29.2322  -70.9655 C.ar      11 UNK        -0.0753 
     14 C14       -77.7472   29.4309  -71.0177 C.ar      11 UNK        -0.0933 
     15 C15       -75.4206   30.3165  -71.4585 C.3       11 UNK         0.0166 
     16 S16       -75.1147   30.1610  -73.2440 S.3       11 UNK        -0.2615 
     17 C17       -74.2202   31.7230  -73.5660 C.3       11 UNK        -0.0865 
     18 CA        -72.7237   31.5419  -73.9331 C.3       10 UNK         0.0862 
     19 C         -71.8371   31.1206  -72.7224 C.2       10 UNK         0.5551 
     20 N         -70.9450   30.1445  -72.8500 N.am      10 UNK        -0.7319 
     21 O         -71.9474   31.7054  -71.6476 O.2       10 UNK        -0.5018 
     22 N         -72.5712   30.6968  -75.1247 N.am      10 UNK        -0.4509 
     23 C         -71.6218   30.8333  -76.0559 C.2       10 UNK         0.4899 
     24 O         -70.7929   31.7449  -76.0682 O.2       10 UNK        -0.4839 
     25 CA        -71.5994   29.7410  -77.1401 C.3       9 UNK         0.0222 
     26 CB        -70.3794   29.8432  -78.0804 C.3       9 UNK        -0.1966 
     27 N         -71.7126   28.3905  -76.5736 N.am      9 UNK        -0.4218 
     28 C         -70.8688   27.7953  -75.7120 C.2       9 UNK         0.5020 
     29 O         -69.8795   28.3546  -75.2368 O.2       9 UNK        -0.5274 
     30 CA        -71.1739   26.3481  -75.2681 C.3       8 UNK         0.0270 
     31 CB        -71.4388   26.3013  -73.7531 C.3       8 UNK        -0.1976 
     32 N         -72.3043   25.7336  -75.9707 N.am      8 UNK        -0.4313 
     33 C         -72.2996   25.3592  -77.2605 C.2       8 UNK         0.5041 
     34 O         -71.2865   25.3610  -77.9605 O.2       8 UNK        -0.5577 
     35 CA        -73.6469   24.9637  -77.9035 C.3       7 UNK         0.0284 
     36 CB        -73.7218   23.4411  -78.0980 C.3       7 UNK        -0.1958 
     37 N         -74.8301   25.4190  -77.1628 N.am      7 UNK        -0.4454 
     38 C         -75.1203   26.6971  -76.8713 C.2       7 UNK         0.5089 
     39 O         -74.4808   27.6535  -77.3112 O.2       7 UNK        -0.5125 
     40 CA        -76.2467   26.9580  -75.8521 C.3       6 UNK         0.0408 
     41 CB        -77.5005   27.4993  -76.5511 C.3       6 UNK        -0.1791 
     42 N         -76.5941   25.8047  -75.0065 N.am      6 UNK        -0.4762 
     43 C         -75.7416   25.2161  -74.1483 C.2       6 UNK         0.5007 
     44 O         -74.5631   25.5582  -74.0474 O.2       6 UNK        -0.5032 
     45 CA        -76.2347   24.0147  -73.3188 C.3       5 UNK         0.0783 
     46 C46       -76.7609   24.4258  -71.9224 C.3       11 UNK        -0.0857 
     47 S47       -75.3876   24.7195  -70.7532 S.3       11 UNK        -0.2512 
     48 C48       -76.1783   25.7237  -69.4574 C.3       11 UNK         0.0225 
     49 N         -77.2069   23.2117  -74.0647 N.am      5 UNK        -0.4615 
     50 C         -77.0978   21.8877  -74.2493 C.2       4 UNK         0.5053 
     51 O         -76.2268   21.1930  -73.7246 O.2       4 UNK        -0.5105 
     52 CA        -78.1125   21.2046  -75.1874 C.3       4 UNK         0.0263 
     53 CB        -79.2357   20.5464  -74.3695 C.3       4 UNK        -0.1981 
     54 N         -78.7098   22.0942  -76.1854 N.am      4 UNK        -0.4224 
     55 C         -78.0429   22.8066  -77.1050 C.2       3 UNK         0.4895 
     56 O         -76.8252   22.7504  -77.2692 O.2       3 UNK        -0.5091 
     57 CA        -78.8643   23.7924  -77.9535 C.3       3 UNK         0.0250 
     58 CB        -79.1760   23.1792  -79.3279 C.3       3 UNK        -0.1996 
     59 N         -80.1154   24.2540  -77.3344 N.am      3 UNK        -0.4254 
     60 C         -80.2350   24.8573  -76.1421 C.2       2 UNK         0.5004 
     61 O         -79.2970   25.0296  -75.3567 O.2       2 UNK        -0.5226 
     62 CA        -81.6586   25.2769  -75.7385 C.3       2 UNK         0.0269 
     63 CB        -82.2955   24.1960  -74.8505 C.3       2 UNK        -0.1926 
     64 N         -81.6852   26.5539  -75.0242 N.am      2 UNK        -0.4687 
     65 C         -81.3017   27.7332  -75.5316 C.2       1 UNK         0.5165 
     66 O         -80.9254   27.8916  -76.6941 O.2       1 UNK        -0.5079 
     67 H67       -85.0857   29.3314  -73.0668 H         1 UNK         0.0900 
     68 H68       -85.8682   28.9026  -74.5892 H         1 UNK         0.0900 
     69 H69       -85.5629   30.5976  -74.1994 H         1 UNK         0.0900 
     70 H70       -82.8883   28.9273  -73.1064 H         1 UNK         0.2959 
     71 H71       -81.1414   29.8208  -75.1868 H         1 UNK         0.1079 
     72 H72       -80.2077   29.8800  -73.0362 H         1 UNK         0.0837 
     73 H73       -79.3726   28.5626  -73.7962 H         1 UNK         0.0837 
     74 H74       -80.3791   29.7052  -70.6612 H         1 UNK         0.0685 
     75 H75       -80.5827   28.2575  -69.7101 H         1 UNK         0.0685 
     76 H76       -78.7834   26.4799  -69.7039 H         1 UNK         0.1434 
     77 H77       -74.7884   27.8712  -70.4200 H         1 UNK         0.1329 
     78 H78       -78.1412   30.3542  -71.4197 H         1 UNK         0.1335 
     79 H79       -74.4709   30.2686  -70.9231 H         1 UNK         0.0680 
     80 H80       -75.8489   31.2967  -71.2433 H         1 UNK         0.0680 
     81 H81       -74.7295   32.2240  -74.3907 H         1 UNK         0.1032 
     82 H82       -74.3251   32.4025  -72.7182 H         1 UNK         0.1032 
     83 H83       -72.3620   32.5382  -74.1942 H         1 UNK         0.0461 
     84 H84       -70.7941   29.6865  -73.7386 H         1 UNK         0.3453 
     85 H85       -70.3774   29.8951  -72.0560 H         1 UNK         0.3453 
     86 H86       -73.1998   29.9082  -75.1800 H         1 UNK         0.2984 
     87 H87       -72.4942   29.8925  -77.7457 H         1 UNK         0.0554 
     88 H88       -70.4052   29.0701  -78.8483 H         1 UNK         0.0847 
     89 H89       -69.4385   29.7453  -77.5379 H         1 UNK         0.0847 
     90 H90       -70.3601   30.8065  -78.5915 H         1 UNK         0.0847 
     91 H91       -72.5419   27.8789  -76.8613 H         1 UNK         0.3141 
     92 H92       -70.2829   25.7526  -75.4770 H         1 UNK         0.0743 
     93 H93       -71.6456   25.2857  -73.4149 H         1 UNK         0.0784 
     94 H94       -70.5742   26.6586  -73.1920 H         1 UNK         0.0784 
     95 H95       -72.2876   26.9269  -73.4729 H         1 UNK         0.0784 
     96 H96       -73.1731   25.6752  -75.4448 H         1 UNK         0.3213 
     97 H97       -73.6772   25.4355  -78.8878 H         1 UNK         0.0855 
     98 H98       -72.8405   23.0667  -78.6209 H         1 UNK         0.0814 
     99 H99       -74.5892   23.1617  -78.6959 H         1 UNK         0.0814 
    100 H100      -73.7858   22.9144  -77.1450 H         1 UNK         0.0814 
    101 H101      -75.4217   24.6967  -76.7733 H         1 UNK         0.3105 
    102 H102      -75.8834   27.7405  -75.1826 H         1 UNK         0.0547 
    103 H103      -77.2691   28.3909  -77.1353 H         1 UNK         0.0837 
    104 H104      -77.9379   26.7703  -77.2310 H         1 UNK         0.0837 
    105 H105      -78.2623   27.7800  -75.8259 H         1 UNK         0.0837 
    106 H106      -77.5633   25.4958  -75.0537 H         1 UNK         0.3020 
    107 H107      -75.3399   23.4061  -73.1657 H         1 UNK         0.1245 
    108 H108      -77.3736   23.6280  -71.4996 H         1 UNK         0.0781 
    109 H109      -77.4109   25.2990  -71.9948 H         1 UNK         0.0781 
    110 H110      -75.4453   25.9353  -68.6777 H         1 UNK         0.0836 
    111 H111      -76.9663   25.1358  -68.9839 H         1 UNK         0.0836 
    112 H112      -77.9614   23.7117  -74.5224 H         1 UNK         0.3022 
    113 H113      -77.5758   20.4227  -75.7286 H         1 UNK         0.0747 
    114 H114      -79.9104   19.9749  -75.0072 H         1 UNK         0.0793 
    115 H115      -78.8274   19.8539  -73.6318 H         1 UNK         0.0793 
    116 H116      -79.8277   21.2863  -73.8290 H         1 UNK         0.0793 
    117 H117      -79.7098   22.2184  -76.1346 H         1 UNK         0.3047 
    118 H118      -78.2356   24.6692  -78.1127 H         1 UNK         0.0822 
    119 H119      -79.8331   22.3126  -79.2444 H         1 UNK         0.0807 
    120 H120      -78.2625   22.8484  -79.8247 H         1 UNK         0.0807 
    121 H121      -79.6547   23.9032  -79.9876 H         1 UNK         0.0807 
    122 H122      -80.9482   24.1359  -77.8940 H         1 UNK         0.2946 
    123 H123      -82.2618   25.3935  -76.6416 H         1 UNK         0.1144 
    124 H124      -82.3278   23.2337  -75.3632 H         1 UNK         0.0793 
    125 H125      -81.7349   24.0541  -73.9251 H         1 UNK         0.0793 
    126 H126      -83.3211   24.4533  -74.5851 H         1 UNK         0.0793 
    127 H127      -81.9338   26.5243  -74.0454 H         1 UNK         0.2896 
@<TRIPOS>BOND
     1    1    2 1    
     2    1   67 1    
     3    1   68 1    
     4    1   69 1    
     5    2    3 2    
     6    2    4 am   BACKBONE|DICT|INTERRES
     7    4    5 1    
     8    4   70 1    
     9    5    6 1    
    10    5   65 1    
    11    5   71 1    
    12    6    7 1    
    13    6   72 1    
    14    6   73 1    
    15    7    8 1    
    16    8    9 1    
    17    8   74 1    
    18    8   75 1    
    19    9   10 ar   
    20    9   14 ar   
    21   10   11 ar   
    22   10   76 1    
    23   11   12 ar   
    24   11   48 1    
    25   12   13 ar   
    26   12   77 1    
    27   13   14 ar   
    28   13   15 1    
    29   14   78 1    
    30   15   16 1    
    31   15   79 1    
    32   15   80 1    
    33   16   17 1    
    34   17   18 1    
    35   17   81 1    
    36   17   82 1    
    37   18   19 1    
    38   18   22 1    
    39   18   83 1    
    40   19   20 am   BACKBONE|DICT|INTERRES
    41   19   21 2    
    42   20   84 1    
    43   20   85 1    
    44   22   23 am   BACKBONE|DICT|INTERRES
    45   22   86 1    
    46   23   24 2    
    47   23   25 1    
    48   25   26 1    
    49   25   27 1    
    50   25   87 1    
    51   26   88 1    
    52   26   89 1    
    53   26   90 1    
    54   27   28 am   BACKBONE|DICT|INTERRES
    55   27   91 1    
    56   28   29 2    
    57   28   30 1    
    58   30   31 1    
    59   30   32 1    
    60   30   92 1    
    61   31   93 1    
    62   31   94 1    
    63   31   95 1    
    64   32   33 am   BACKBONE|DICT|INTERRES
    65   32   96 1    
    66   33   34 2    
    67   33   35 1    
    68   35   36 1    
    69   35   37 1    
    70   35   97 1    
    71   36   98 1    
    72   36   99 1    
    73   36  100 1    
    74   37   38 am   BACKBONE|DICT|INTERRES
    75   37  101 1    
    76   38   39 2    
    77   38   40 1    
    78   40   41 1    
    79   40   42 1    
    80   40  102 1    
    81   41  103 1    
    82   41  104 1    
    83   41  105 1    
    84   42   43 am   BACKBONE|DICT|INTERRES
    85   42  106 1    
    86   43   44 2    
    87   43   45 1    
    88   45   46 1    
    89   45   49 1    
    90   45  107 1    
    91   46   47 1    
    92   46  108 1    
    93   46  109 1    
    94   47   48 1    
    95   48  110 1    
    96   48  111 1    
    97   49   50 am   BACKBONE|DICT|INTERRES
    98   49  112 1    
    99   50   51 2    
   100   50   52 1    
   101   52   53 1    
   102   52   54 1    
   103   52  113 1    
   104   53  114 1    
   105   53  115 1    
   106   53  116 1    
   107   54   55 am   BACKBONE|DICT|INTERRES
   108   54  117 1    
   109   55   56 2    
   110   55   57 1    
   111   57   58 1    
   112   57   59 1    
   113   57  118 1    
   114   58  119 1    
   115   58  120 1    
   116   58  121 1    
   117   59   60 am   BACKBONE|DICT|INTERRES
   118   59  122 1    
   119   60   61 2    
   120   60   62 1    
   121   62   63 1    
   122   62   64 1    
   123   62  123 1    
   124   63  124 1    
   125   63  125 1    
   126   63  126 1    
   127   64   65 am   BACKBONE|DICT|INTERRES
   128   64  127 1    
   129   65   66 2    
@<TRIPOS>SUBSTRUCTURE
     1 UNK         1 GROUP             0       ****    0 ROOT    
