@<TRIPOS>MOLECULE
3R135
127   129    1
SMALL
USER_CHARGES


@<TRIPOS>ATOM
      1 CA        -78.3547   22.0644  -71.5242 C.3       0 UNK        -0.1998 
      2 C         -79.4293   23.0363  -71.9860 C.2       0 UNK         0.4909 
      3 O         -80.1209   22.7594  -72.9665 O.2       0 UNK        -0.5240 
      4 N         -79.5629   24.1790  -71.2976 N.am      1 UNK        -0.4739 
      5 CA        -80.5129   25.2572  -71.5981 C.3       1 UNK         0.0864 
      6 C6        -80.4283   26.3781  -70.5332 C.3       11 UNK        -0.0881 
      7 S7        -81.8330   27.5391  -70.6250 S.3       11 UNK        -0.2682 
      8 C8        -81.0925   29.0686  -69.9662 C.3       11 UNK         0.0289 
      9 C9        -80.0324   29.6607  -70.8875 C.ar      11 UNK        -0.0687 
     10 C10       -80.3906   30.1641  -72.1429 C.ar      11 UNK        -0.0823 
     11 C11       -79.4288   30.7339  -72.9842 C.ar      11 UNK        -0.0830 
     12 C12       -78.1053   30.8227  -72.5441 C.ar      11 UNK        -0.1021 
     13 C13       -77.7298   30.3035  -71.3042 C.ar      11 UNK        -0.0753 
     14 C14       -78.6963   29.7249  -70.4767 C.ar      11 UNK        -0.0933 
     15 C15       -76.2718   30.3609  -70.8844 C.3       11 UNK         0.0166 
     16 S16       -75.3131   29.0885  -71.7572 S.3       11 UNK        -0.2615 
     17 C17       -73.6171   29.6880  -71.4552 C.3       11 UNK        -0.0865 
     18 CA        -72.5178   28.7670  -72.0480 C.3       10 UNK         0.0862 
     19 C         -72.3944   27.4078  -71.3023 C.2       10 UNK         0.5551 
     20 N         -72.2841   26.2823  -71.9954 N.am      10 UNK        -0.7319 
     21 O         -72.3675   27.3745  -70.0743 O.2       10 UNK        -0.5018 
     22 N         -72.6381   28.6398  -73.5114 N.am      10 UNK        -0.4509 
     23 C         -71.8950   29.2928  -74.4124 C.2       10 UNK         0.4899 
     24 O         -71.0145   30.1043  -74.1201 O.2       10 UNK        -0.4839 
     25 CA        -72.1900   28.9722  -75.8917 C.3       9 UNK         0.0222 
     26 CB        -71.2119   29.6520  -76.8737 C.3       9 UNK        -0.1966 
     27 N         -72.2728   27.5286  -76.1432 N.am      9 UNK        -0.4218 
     28 C         -71.3113   26.6099  -75.9673 C.2       9 UNK         0.5020 
     29 O         -70.1580   26.8709  -75.6236 O.2       9 UNK        -0.5274 
     30 CA        -71.7004   25.1379  -76.1909 C.3       8 UNK         0.0270 
     31 CB        -72.0126   24.4444  -74.8570 C.3       8 UNK        -0.1976 
     32 N         -72.8315   24.9590  -77.1070 N.am      8 UNK        -0.4313 
     33 C         -72.7073   24.9883  -78.4401 C.2       8 UNK         0.5041 
     34 O         -71.6565   25.2493  -79.0276 O.2       8 UNK        -0.5577 
     35 CA        -73.9556   24.6384  -79.2554 C.3       7 UNK         0.0284 
     36 CB        -74.2988   23.1435  -79.1280 C.3       7 UNK        -0.1958 
     37 N         -75.1097   25.4530  -78.8709 N.am      7 UNK        -0.4454 
     38 C         -75.4126   26.6154  -79.4648 C.2       7 UNK         0.5089 
     39 O         -74.6881   27.1734  -80.2901 O.2       7 UNK        -0.5125 
     40 CA        -76.7791   27.2345  -79.1407 C.3       6 UNK         0.0408 
     41 CB        -77.9076   26.4150  -79.7881 C.3       6 UNK        -0.1791 
     42 N         -77.0420   27.3839  -77.7112 N.am      6 UNK        -0.4762 
     43 C         -76.5025   28.3383  -76.9389 C.2       6 UNK         0.5007 
     44 O         -75.6178   29.1080  -77.3145 O.2       6 UNK        -0.5032 
     45 CA        -77.0695   28.4606  -75.5096 C.3       5 UNK         0.0783 
     46 C46       -78.5348   28.9783  -75.5308 C.3       11 UNK        -0.0857 
     47 S47       -78.6355   30.7937  -75.6873 S.3       11 UNK        -0.2512 
     48 C48       -79.8266   31.2352  -74.3702 C.3       11 UNK         0.0225 
     49 N         -76.9615   27.1984  -74.7804 N.am      5 UNK        -0.4615 
     50 C         -75.8259   26.5545  -74.4834 C.2       4 UNK         0.5053 
     51 O         -74.6991   26.9896  -74.7135 O.2       4 UNK        -0.5105 
     52 CA        -75.9756   25.1563  -73.8662 C.3       4 UNK         0.0263 
     53 CB        -76.1345   25.2395  -72.3400 C.3       4 UNK        -0.1981 
     54 N         -77.0899   24.4173  -74.4632 N.am      4 UNK        -0.4224 
     55 C         -77.1102   23.9940  -75.7365 C.2       3 UNK         0.4895 
     56 O         -76.1657   24.1230  -76.5169 O.2       3 UNK        -0.5091 
     57 CA        -78.4197   23.3651  -76.2370 C.3       3 UNK         0.0250 
     58 CB        -78.4719   21.8684  -75.8946 C.3       3 UNK        -0.1996 
     59 N         -79.6006   24.0475  -75.6990 N.am      3 UNK        -0.4254 
     60 C         -79.9834   25.2752  -76.0836 C.2       2 UNK         0.5004 
     61 O         -79.4093   25.9214  -76.9588 O.2       2 UNK        -0.5226 
     62 CA        -81.1708   25.9185  -75.3444 C.3       2 UNK         0.0269 
     63 CB        -82.4937   25.5668  -76.0421 C.3       2 UNK        -0.1926 
     64 N         -81.2531   25.5559  -73.9264 N.am      2 UNK        -0.4687 
     65 C         -80.2920   25.8002  -73.0249 C.2       1 UNK         0.5165 
     66 O         -79.2374   26.3740  -73.2962 O.2       1 UNK        -0.5079 
     67 H67       -77.6085   21.9296  -72.3067 H         1 UNK         0.0900 
     68 H68       -78.7980   21.0934  -71.3054 H         1 UNK         0.0900 
     69 H69       -77.8459   22.4144  -70.6262 H         1 UNK         0.0900 
     70 H70       -78.9517   24.3495  -70.5121 H         1 UNK         0.2959 
     71 H71       -81.5110   24.8166  -71.5456 H         1 UNK         0.1079 
     72 H72       -80.4361   25.9444  -69.5320 H         1 UNK         0.0837 
     73 H73       -79.4835   26.9182  -70.6195 H         1 UNK         0.0837 
     74 H74       -80.6809   28.8662  -68.9761 H         1 UNK         0.0685 
     75 H75       -81.8839   29.8053  -69.8217 H         1 UNK         0.0685 
     76 H76       -81.4211   30.1005  -72.4649 H         1 UNK         0.1434 
     77 H77       -77.3526   31.2644  -73.1825 H         1 UNK         0.1329 
     78 H78       -78.4076   29.3262  -69.5138 H         1 UNK         0.1335 
     79 H79       -76.1681   30.2196  -69.8075 H         1 UNK         0.0680 
     80 H80       -75.8683   31.3488  -71.1120 H         1 UNK         0.0680 
     81 H81       -73.5233   30.6845  -71.8893 H         1 UNK         0.1032 
     82 H82       -73.4713   29.8190  -70.3812 H         1 UNK         0.1032 
     83 H83       -71.5643   29.2508  -71.8296 H         1 UNK         0.0461 
     84 H84       -72.1895   25.4088  -71.5025 H         1 UNK         0.3453 
     85 H85       -72.2602   26.3088  -73.0000 H         1 UNK         0.3453 
     86 H86       -73.3715   28.0170  -73.8437 H         1 UNK         0.2984 
     87 H87       -73.1846   29.3715  -76.0929 H         1 UNK         0.0554 
     88 H88       -71.2415   30.7367  -76.7643 H         1 UNK         0.0847 
     89 H89       -71.4684   29.4241  -77.9082 H         1 UNK         0.0847 
     90 H90       -70.1815   29.3374  -76.7059 H         1 UNK         0.0847 
     91 H91       -73.2069   27.1851  -76.3291 H         1 UNK         0.3141 
     92 H92       -70.8283   24.6389  -76.6198 H         1 UNK         0.0743 
     93 H93       -71.1597   24.5024  -74.1792 H         1 UNK         0.0784 
     94 H94       -72.8623   24.9034  -74.3568 H         1 UNK         0.0784 
     95 H95       -72.2374   23.3874  -75.0011 H         1 UNK         0.0784 
     96 H96       -73.7340   24.7374  -76.7066 H         1 UNK         0.3213 
     97 H97       -73.7214   24.8202  -80.3071 H         1 UNK         0.0855 
     98 H98       -74.5151   22.8530  -78.1000 H         1 UNK         0.0814 
     99 H99       -73.4670   22.5256  -79.4689 H         1 UNK         0.0814 
    100 H100      -75.1647   22.8835  -79.7370 H         1 UNK         0.0814 
    101 H101      -75.7193   25.0773  -78.1491 H         1 UNK         0.3105 
    102 H102      -76.8024   28.2300  -79.5895 H         1 UNK         0.0547 
    103 H103      -77.9800   25.4143  -79.3603 H         1 UNK         0.0837 
    104 H104      -78.8743   26.9016  -79.6578 H         1 UNK         0.0837 
    105 H105      -77.7443   26.3013  -80.8607 H         1 UNK         0.0837 
    106 H106      -77.7847   26.8031  -77.3263 H         1 UNK         0.3020 
    107 H107      -76.4495   29.1779  -74.9664 H         1 UNK         0.1245 
    108 H108      -79.0407   28.6827  -74.6119 H         1 UNK         0.0781 
    109 H109      -79.1214   28.5265  -76.3321 H         1 UNK         0.0781 
    110 H110      -79.9264   32.3207  -74.3352 H         1 UNK         0.0836 
    111 H111      -80.8057   30.8436  -74.6509 H         1 UNK         0.0836 
    112 H112      -77.8340   26.7963  -74.4476 H         1 UNK         0.3022 
    113 H113      -75.0650   24.5956  -74.0769 H         1 UNK         0.0747 
    114 H114      -75.2805   25.7496  -71.8921 H         1 UNK         0.0793 
    115 H115      -76.1901   24.2487  -71.8904 H         1 UNK         0.0793 
    116 H116      -77.0255   25.7957  -72.0493 H         1 UNK         0.0793 
    117 H117      -77.9351   24.3424  -73.9168 H         1 UNK         0.3047 
    118 H118      -78.4365   23.4617  -77.3250 H         1 UNK         0.0822 
    119 H119      -77.6224   21.3408  -76.3307 H         1 UNK         0.0807 
    120 H120      -79.3769   21.4037  -76.2862 H         1 UNK         0.0807 
    121 H121      -78.4448   21.6939  -74.8189 H         1 UNK         0.0807 
    122 H122      -80.0910   23.5929  -74.9356 H         1 UNK         0.2946 
    123 H123      -81.0335   27.0008  -75.3977 H         1 UNK         0.1144 
    124 H124      -82.4648   25.8473  -77.0961 H         1 UNK         0.0793 
    125 H125      -83.3335   26.0959  -75.5914 H         1 UNK         0.0793 
    126 H126      -82.7041   24.4975  -75.9948 H         1 UNK         0.0793 
    127 H127      -82.0766   25.0482  -73.6362 H         1 UNK         0.2896 
@<TRIPOS>BOND
     1    1    2 1    
     2    1   67 1    
     3    1   68 1    
     4    1   69 1    
     5    2    3 2    
     6    2    4 am   BACKBONE|DICT|INTERRES
     7    4    5 1    
     8    4   70 1    
     9    5    6 1    
    10    5   65 1    
    11    5   71 1    
    12    6    7 1    
    13    6   72 1    
    14    6   73 1    
    15    7    8 1    
    16    8    9 1    
    17    8   74 1    
    18    8   75 1    
    19    9   10 ar   
    20    9   14 ar   
    21   10   11 ar   
    22   10   76 1    
    23   11   12 ar   
    24   11   48 1    
    25   12   13 ar   
    26   12   77 1    
    27   13   14 ar   
    28   13   15 1    
    29   14   78 1    
    30   15   16 1    
    31   15   79 1    
    32   15   80 1    
    33   16   17 1    
    34   17   18 1    
    35   17   81 1    
    36   17   82 1    
    37   18   19 1    
    38   18   22 1    
    39   18   83 1    
    40   19   20 am   BACKBONE|DICT|INTERRES
    41   19   21 2    
    42   20   84 1    
    43   20   85 1    
    44   22   23 am   BACKBONE|DICT|INTERRES
    45   22   86 1    
    46   23   24 2    
    47   23   25 1    
    48   25   26 1    
    49   25   27 1    
    50   25   87 1    
    51   26   88 1    
    52   26   89 1    
    53   26   90 1    
    54   27   28 am   BACKBONE|DICT|INTERRES
    55   27   91 1    
    56   28   29 2    
    57   28   30 1    
    58   30   31 1    
    59   30   32 1    
    60   30   92 1    
    61   31   93 1    
    62   31   94 1    
    63   31   95 1    
    64   32   33 am   BACKBONE|DICT|INTERRES
    65   32   96 1    
    66   33   34 2    
    67   33   35 1    
    68   35   36 1    
    69   35   37 1    
    70   35   97 1    
    71   36   98 1    
    72   36   99 1    
    73   36  100 1    
    74   37   38 am   BACKBONE|DICT|INTERRES
    75   37  101 1    
    76   38   39 2    
    77   38   40 1    
    78   40   41 1    
    79   40   42 1    
    80   40  102 1    
    81   41  103 1    
    82   41  104 1    
    83   41  105 1    
    84   42   43 am   BACKBONE|DICT|INTERRES
    85   42  106 1    
    86   43   44 2    
    87   43   45 1    
    88   45   46 1    
    89   45   49 1    
    90   45  107 1    
    91   46   47 1    
    92   46  108 1    
    93   46  109 1    
    94   47   48 1    
    95   48  110 1    
    96   48  111 1    
    97   49   50 am   BACKBONE|DICT|INTERRES
    98   49  112 1    
    99   50   51 2    
   100   50   52 1    
   101   52   53 1    
   102   52   54 1    
   103   52  113 1    
   104   53  114 1    
   105   53  115 1    
   106   53  116 1    
   107   54   55 am   BACKBONE|DICT|INTERRES
   108   54  117 1    
   109   55   56 2    
   110   55   57 1    
   111   57   58 1    
   112   57   59 1    
   113   57  118 1    
   114   58  119 1    
   115   58  120 1    
   116   58  121 1    
   117   59   60 am   BACKBONE|DICT|INTERRES
   118   59  122 1    
   119   60   61 2    
   120   60   62 1    
   121   62   63 1    
   122   62   64 1    
   123   62  123 1    
   124   63  124 1    
   125   63  125 1    
   126   63  126 1    
   127   64   65 am   BACKBONE|DICT|INTERRES
   128   64  127 1    
   129   65   66 2    
@<TRIPOS>SUBSTRUCTURE
     1 UNK         1 GROUP             0       ****    0 ROOT    
