@<TRIPOS>MOLECULE
3R135
127   129    1
SMALL
USER_CHARGES


@<TRIPOS>ATOM
      1 CA        -81.9966   22.6535  -71.8309 C.3       0 UNK        -0.1998 
      2 C         -81.4569   23.9055  -72.5033 C.2       0 UNK         0.4909 
      3 O         -80.4550   23.8294  -73.2135 O.2       0 UNK        -0.5240 
      4 N         -82.1258   25.0502  -72.3043 N.am      1 UNK        -0.4739 
      5 CA        -81.7537   26.3885  -72.7976 C.3       1 UNK         0.0864 
      6 C6        -80.4978   26.9811  -72.1071 C.3       11 UNK        -0.0881 
      7 S7        -80.4795   26.8637  -70.2817 S.3       11 UNK        -0.2682 
      8 C8        -79.8194   28.4884  -69.7697 C.3       11 UNK         0.0289 
      9 C9        -78.6289   28.9316  -70.6115 C.ar      11 UNK        -0.0687 
     10 C10       -78.7780   29.9779  -71.5254 C.ar      11 UNK        -0.0823 
     11 C11       -77.7249   30.3478  -72.3648 C.ar      11 UNK        -0.0830 
     12 C12       -76.4986   29.6852  -72.2571 C.ar      11 UNK        -0.1021 
     13 C13       -76.3338   28.6387  -71.3440 C.ar      11 UNK        -0.0753 
     14 C14       -77.4007   28.2710  -70.5177 C.ar      11 UNK        -0.0933 
     15 C15       -75.0325   27.8536  -71.2970 C.3       11 UNK         0.0166 
     16 S16       -73.9328   28.3944  -69.9484 S.3       11 UNK        -0.2615 
     17 C17       -73.1944   29.9596  -70.5503 C.3       11 UNK        -0.0865 
     18 CA        -72.6376   29.9471  -72.0028 C.3       10 UNK         0.0862 
     19 C         -71.9050   31.2768  -72.3451 C.2       10 UNK         0.5551 
     20 N         -70.6659   31.2507  -72.8204 N.am      10 UNK        -0.7319 
     21 O         -72.4753   32.3525  -72.1819 O.2       10 UNK        -0.5018 
     22 N         -71.8650   28.7270  -72.2968 N.am      10 UNK        -0.4509 
     23 C         -71.8347   28.1315  -73.4944 C.2       10 UNK         0.4899 
     24 O         -72.3864   28.5887  -74.4969 O.2       10 UNK        -0.4839 
     25 CA        -71.1077   26.7742  -73.5497 C.3       9 UNK         0.0222 
     26 CB        -71.9076   25.7054  -72.7818 C.3       9 UNK        -0.1966 
     27 N         -70.9101   26.3039  -74.9217 N.am      9 UNK        -0.4218 
     28 C         -70.0517   26.8209  -75.8110 C.2       9 UNK         0.5020 
     29 O         -69.2348   27.7022  -75.5365 O.2       9 UNK        -0.5274 
     30 CA        -70.0858   26.2504  -77.2461 C.3       8 UNK         0.0270 
     31 CB        -68.8133   25.4341  -77.5317 C.3       8 UNK        -0.1976 
     32 N         -71.2600   25.4166  -77.5399 N.am      8 UNK        -0.4313 
     33 C         -72.5111   25.8760  -77.6828 C.2       8 UNK         0.5041 
     34 O         -72.8016   27.0714  -77.6149 O.2       8 UNK        -0.5577 
     35 CA        -73.6027   24.8083  -77.9079 C.3       7 UNK         0.0284 
     36 CB        -73.6710   23.8256  -76.7227 C.3       7 UNK        -0.1958 
     37 N         -74.9318   25.3935  -78.0869 N.am      7 UNK        -0.4454 
     38 C         -75.3611   26.0695  -79.1602 C.2       7 UNK         0.5089 
     39 O         -74.7131   26.1918  -80.2010 O.2       7 UNK        -0.5125 
     40 CA        -76.7549   26.7177  -79.0572 C.3       6 UNK         0.0408 
     41 CB        -77.8244   25.8153  -79.6930 C.3       6 UNK        -0.1791 
     42 N         -77.1303   27.0224  -77.6714 N.am      6 UNK        -0.4762 
     43 C         -76.6955   28.0951  -76.9900 C.2       6 UNK         0.5007 
     44 O         -75.9991   28.9750  -77.4969 O.2       6 UNK        -0.5032 
     45 CA        -77.0978   28.2126  -75.5012 C.3       5 UNK         0.0783 
     46 C46       -78.2259   29.2580  -75.2852 C.3       11 UNK        -0.0857 
     47 S47       -77.5329   30.9442  -75.1153 S.3       11 UNK        -0.2512 
     48 C48       -77.9429   31.4422  -73.4044 C.3       11 UNK         0.0225 
     49 N         -77.4224   26.9061  -74.9135 N.am      5 UNK        -0.4615 
     50 C         -76.4843   26.0460  -74.4870 C.2       4 UNK         0.5053 
     51 O         -75.2816   26.3011  -74.4770 O.2       4 UNK        -0.5105 
     52 CA        -76.9340   24.6479  -74.0343 C.3       4 UNK         0.0263 
     53 CB        -77.1073   24.5768  -72.5091 C.3       4 UNK        -0.1981 
     54 N         -78.1413   24.1643  -74.7097 N.am      4 UNK        -0.4224 
     55 C         -78.1738   23.8129  -76.0031 C.2       3 UNK         0.4895 
     56 O         -77.2313   23.9860  -76.7743 O.2       3 UNK        -0.5091 
     57 CA        -79.4598   23.1647  -76.5284 C.3       3 UNK         0.0250 
     58 CB        -79.6281   21.7455  -75.9597 C.3       3 UNK        -0.1996 
     59 N         -80.6312   23.9700  -76.1908 N.am      3 UNK        -0.4254 
     60 C         -81.2531   24.8019  -77.0381 C.2       2 UNK         0.5004 
     61 O         -80.9127   24.9654  -78.2099 O.2       2 UNK        -0.5226 
     62 CA        -82.4708   25.5830  -76.5054 C.3       2 UNK         0.0269 
     63 CB        -83.7774   24.9180  -76.9686 C.3       2 UNK        -0.1926 
     64 N         -82.4999   25.7267  -75.0465 N.am      2 UNK        -0.4687 
     65 C         -81.6134   26.4403  -74.3387 C.2       1 UNK         0.5165 
     66 O         -80.6895   27.0698  -74.8600 O.2       1 UNK        -0.5079 
     67 H67       -82.2403   21.9014  -72.5806 H         1 UNK         0.0900 
     68 H68       -81.2441   22.2370  -71.1620 H         1 UNK         0.0900 
     69 H69       -82.8943   22.8575  -71.2478 H         1 UNK         0.0900 
     70 H70       -82.9470   25.0321  -71.7154 H         1 UNK         0.2959 
     71 H71       -82.5940   27.0418  -72.5571 H         1 UNK         0.1079 
     72 H72       -79.5959   26.4987  -72.4787 H         1 UNK         0.0837 
     73 H73       -80.4150   28.0282  -72.3966 H         1 UNK         0.0837 
     74 H74       -80.6235   29.2239  -69.8229 H         1 UNK         0.0685 
     75 H75       -79.5227   28.4365  -68.7213 H         1 UNK         0.0685 
     76 H76       -79.7321   30.4805  -71.6092 H         1 UNK         0.1434 
     77 H77       -75.6913   29.9608  -72.9187 H         1 UNK         0.1329 
     78 H78       -77.2869   27.4487  -69.8245 H         1 UNK         0.1335 
     79 H79       -74.5244   27.8930  -72.2596 H         1 UNK         0.0680 
     80 H80       -75.2614   26.7997  -71.1380 H         1 UNK         0.0680 
     81 H81       -73.9492   30.7422  -70.4503 H         1 UNK         0.1032 
     82 H82       -72.3998   30.2258  -69.8508 H         1 UNK         0.1032 
     83 H83       -73.5028   29.9494  -72.6640 H         1 UNK         0.0461 
     84 H84       -70.2010   32.1169  -73.0425 H         1 UNK         0.3453 
     85 H85       -70.1987   30.3710  -72.9722 H         1 UNK         0.3453 
     86 H86       -71.3903   28.3014  -71.5140 H         1 UNK         0.2984 
     87 H87       -70.1287   26.8892  -73.0799 H         1 UNK         0.0554 
     88 H88       -72.0344   25.9789  -71.7335 H         1 UNK         0.0847 
     89 H89       -71.4024   24.7395  -72.8004 H         1 UNK         0.0847 
     90 H90       -72.9055   25.5709  -73.2022 H         1 UNK         0.0847 
     91 H91       -71.5707   25.6214  -75.2595 H         1 UNK         0.3141 
     92 H92       -70.1010   27.1043  -77.9268 H         1 UNK         0.0743 
     93 H93       -67.9177   26.0348  -77.3659 H         1 UNK         0.0784 
     94 H94       -68.7413   24.5584  -76.8855 H         1 UNK         0.0784 
     95 H95       -68.7828   25.0935  -78.5669 H         1 UNK         0.0784 
     96 H96       -71.0948   24.4230  -77.6205 H         1 UNK         0.3213 
     97 H97       -73.3503   24.2539  -78.8143 H         1 UNK         0.0855 
     98 H98       -73.8587   24.3433  -75.7813 H         1 UNK         0.0814 
     99 H99       -72.7437   23.2636  -76.6090 H         1 UNK         0.0814 
    100 H100      -74.4680   23.0943  -76.8616 H         1 UNK         0.0814 
    101 H101      -75.5697   25.3073  -77.3063 H         1 UNK         0.3105 
    102 H102      -76.7274   27.6497  -79.6257 H         1 UNK         0.0547 
    103 H103      -78.8078   26.2850  -79.6667 H         1 UNK         0.0837 
    104 H104      -77.5904   25.6136  -80.7391 H         1 UNK         0.0837 
    105 H105      -77.9011   24.8527  -79.1876 H         1 UNK         0.0837 
    106 H106      -77.6727   26.3225  -77.1845 H         1 UNK         0.3020 
    107 H107      -76.2063   28.5769  -74.9843 H         1 UNK         0.1245 
    108 H108      -78.8022   29.0196  -74.3911 H         1 UNK         0.0781 
    109 H109      -78.9507   29.2442  -76.1016 H         1 UNK         0.0781 
    110 H110      -78.9798   31.7817  -73.3929 H         1 UNK         0.0836 
    111 H111      -77.3373   32.3089  -73.1365 H         1 UNK         0.0836 
    112 H112      -78.4007   26.6472  -74.8822 H         1 UNK         0.3022 
    113 H113      -76.1283   23.9580  -74.2962 H         1 UNK         0.0747 
    114 H114      -77.4631   23.5960  -72.1933 H         1 UNK         0.0793 
    115 H115      -76.1549   24.7500  -72.0077 H         1 UNK         0.0793 
    116 H116      -77.8060   25.3218  -72.1359 H         1 UNK         0.0793 
    117 H117      -78.9682   24.0122  -74.1307 H         1 UNK         0.3047 
    118 H118      -79.3646   23.0752  -77.6129 H         1 UNK         0.0822 
    119 H119      -78.7613   21.1263  -76.1949 H         1 UNK         0.0807 
    120 H120      -80.5023   21.2526  -76.3851 H         1 UNK         0.0807 
    121 H121      -79.7426   21.7481  -74.8751 H         1 UNK         0.0807 
    122 H122      -80.9349   23.9393  -75.2242 H         1 UNK         0.2946 
    123 H123      -82.4208   26.5840  -76.9405 H         1 UNK         0.1144 
    124 H124      -84.6479   25.5061  -76.6774 H         1 UNK         0.0793 
    125 H125      -83.8911   23.9169  -76.5507 H         1 UNK         0.0793 
    126 H126      -83.8031   24.8223  -78.0551 H         1 UNK         0.0793 
    127 H127      -83.2148   25.2163  -74.5476 H         1 UNK         0.2896 
@<TRIPOS>BOND
     1    1    2 1    
     2    1   67 1    
     3    1   68 1    
     4    1   69 1    
     5    2    3 2    
     6    2    4 am   BACKBONE|DICT|INTERRES
     7    4    5 1    
     8    4   70 1    
     9    5    6 1    
    10    5   65 1    
    11    5   71 1    
    12    6    7 1    
    13    6   72 1    
    14    6   73 1    
    15    7    8 1    
    16    8    9 1    
    17    8   74 1    
    18    8   75 1    
    19    9   10 ar   
    20    9   14 ar   
    21   10   11 ar   
    22   10   76 1    
    23   11   12 ar   
    24   11   48 1    
    25   12   13 ar   
    26   12   77 1    
    27   13   14 ar   
    28   13   15 1    
    29   14   78 1    
    30   15   16 1    
    31   15   79 1    
    32   15   80 1    
    33   16   17 1    
    34   17   18 1    
    35   17   81 1    
    36   17   82 1    
    37   18   19 1    
    38   18   22 1    
    39   18   83 1    
    40   19   20 am   BACKBONE|DICT|INTERRES
    41   19   21 2    
    42   20   84 1    
    43   20   85 1    
    44   22   23 am   BACKBONE|DICT|INTERRES
    45   22   86 1    
    46   23   24 2    
    47   23   25 1    
    48   25   26 1    
    49   25   27 1    
    50   25   87 1    
    51   26   88 1    
    52   26   89 1    
    53   26   90 1    
    54   27   28 am   BACKBONE|DICT|INTERRES
    55   27   91 1    
    56   28   29 2    
    57   28   30 1    
    58   30   31 1    
    59   30   32 1    
    60   30   92 1    
    61   31   93 1    
    62   31   94 1    
    63   31   95 1    
    64   32   33 am   BACKBONE|DICT|INTERRES
    65   32   96 1    
    66   33   34 2    
    67   33   35 1    
    68   35   36 1    
    69   35   37 1    
    70   35   97 1    
    71   36   98 1    
    72   36   99 1    
    73   36  100 1    
    74   37   38 am   BACKBONE|DICT|INTERRES
    75   37  101 1    
    76   38   39 2    
    77   38   40 1    
    78   40   41 1    
    79   40   42 1    
    80   40  102 1    
    81   41  103 1    
    82   41  104 1    
    83   41  105 1    
    84   42   43 am   BACKBONE|DICT|INTERRES
    85   42  106 1    
    86   43   44 2    
    87   43   45 1    
    88   45   46 1    
    89   45   49 1    
    90   45  107 1    
    91   46   47 1    
    92   46  108 1    
    93   46  109 1    
    94   47   48 1    
    95   48  110 1    
    96   48  111 1    
    97   49   50 am   BACKBONE|DICT|INTERRES
    98   49  112 1    
    99   50   51 2    
   100   50   52 1    
   101   52   53 1    
   102   52   54 1    
   103   52  113 1    
   104   53  114 1    
   105   53  115 1    
   106   53  116 1    
   107   54   55 am   BACKBONE|DICT|INTERRES
   108   54  117 1    
   109   55   56 2    
   110   55   57 1    
   111   57   58 1    
   112   57   59 1    
   113   57  118 1    
   114   58  119 1    
   115   58  120 1    
   116   58  121 1    
   117   59   60 am   BACKBONE|DICT|INTERRES
   118   59  122 1    
   119   60   61 2    
   120   60   62 1    
   121   62   63 1    
   122   62   64 1    
   123   62  123 1    
   124   63  124 1    
   125   63  125 1    
   126   63  126 1    
   127   64   65 am   BACKBONE|DICT|INTERRES
   128   64  127 1    
   129   65   66 2    
@<TRIPOS>SUBSTRUCTURE
     1 UNK         1 GROUP             0       ****    0 ROOT    
