@<TRIPOS>MOLECULE
3R135
127   129    1
SMALL
USER_CHARGES


@<TRIPOS>ATOM
      1 CA        -84.7927   26.7233  -72.1833 C.3       0 UNK        -0.1998 
      2 C         -83.5370   27.4812  -71.7609 C.2       0 UNK         0.4909 
      3 O         -83.2964   27.6319  -70.5650 O.2       0 UNK        -0.5240 
      4 N         -82.7083   27.9813  -72.6889 N.am      1 UNK        -0.4739 
      5 CA        -82.8139   27.8466  -74.1494 C.3       1 UNK         0.0864 
      6 C6        -81.9946   28.9424  -74.8834 C.3       11 UNK        -0.0881 
      7 S7        -80.1956   28.8793  -74.5650 S.3       11 UNK        -0.2682 
      8 C8        -80.0161   30.1184  -73.2444 C.3       11 UNK         0.0289 
      9 C9        -78.7335   29.9000  -72.4571 C.ar      11 UNK        -0.0687 
     10 C10       -78.5512   28.7176  -71.7326 C.ar      11 UNK        -0.0823 
     11 C11       -77.3794   28.5042  -71.0026 C.ar      11 UNK        -0.0830 
     12 C12       -76.3939   29.4948  -70.9816 C.ar      11 UNK        -0.1021 
     13 C13       -76.5652   30.6829  -71.6979 C.ar      11 UNK        -0.0753 
     14 C14       -77.7365   30.8797  -72.4360 C.ar      11 UNK        -0.0933 
     15 C15       -75.4924   31.7594  -71.6674 C.3       11 UNK         0.0166 
     16 S16       -74.4704   31.7082  -73.1732 S.3       11 UNK        -0.2615 
     17 C17       -72.7805   31.5093  -72.5014 C.3       11 UNK        -0.0865 
     18 CA        -72.2036   30.0736  -72.6558 C.3       10 UNK         0.0862 
     19 C         -72.7811   29.0672  -71.6242 C.2       10 UNK         0.5551 
     20 N         -73.3325   27.9278  -72.0221 N.am      10 UNK        -0.7319 
     21 O         -72.7011   29.3146  -70.4235 O.2       10 UNK        -0.5018 
     22 N         -72.2208   29.5994  -74.0466 N.am      10 UNK        -0.4509 
     23 C         -71.3667   29.9993  -74.9939 C.2       10 UNK         0.4899 
     24 O         -70.4649   30.8185  -74.8052 O.2       10 UNK        -0.4839 
     25 CA        -71.5601   29.3690  -76.3841 C.3       9 UNK         0.0222 
     26 CB        -70.4341   29.7263  -77.3778 C.3       9 UNK        -0.1966 
     27 N         -71.7600   27.9173  -76.3214 N.am      9 UNK        -0.4218 
     28 C         -70.9113   26.9926  -75.8403 C.2       9 UNK         0.5020 
     29 O         -69.8092   27.2573  -75.3574 O.2       9 UNK        -0.5274 
     30 CA        -71.3488   25.5143  -75.9017 C.3       8 UNK         0.0270 
     31 CB        -71.6208   24.9711  -74.4884 C.3       8 UNK        -0.1976 
     32 N         -72.5225   25.2755  -76.7470 N.am      8 UNK        -0.4313 
     33 C         -72.5382   25.3838  -78.0831 C.2       8 UNK         0.5041 
     34 O         -71.5339   25.5964  -78.7636 O.2       8 UNK        -0.5577 
     35 CA        -73.9067   25.2828  -78.7774 C.3       7 UNK         0.0284 
     36 CB        -74.1992   23.8265  -79.1710 C.3       7 UNK        -0.1958 
     37 N         -75.0157   25.8189  -77.9772 N.am      7 UNK        -0.4454 
     38 C         -75.1391   27.0995  -77.5939 C.2       7 UNK         0.5089 
     39 O         -74.3238   27.9762  -77.8783 O.2       7 UNK        -0.5125 
     40 CA        -76.3418   27.4570  -76.7016 C.3       6 UNK         0.0408 
     41 CB        -77.6387   27.5311  -77.5220 C.3       6 UNK        -0.1791 
     42 N         -76.5105   26.5191  -75.5920 N.am      6 UNK        -0.4762 
     43 C         -75.6220   26.3375  -74.6027 C.2       6 UNK         0.5007 
     44 O         -74.5895   27.0015  -74.4741 O.2       6 UNK        -0.5032 
     45 CA        -75.9023   25.1581  -73.6483 C.3       5 UNK         0.0783 
     46 C46       -76.8622   25.5370  -72.4904 C.3       11 UNK        -0.0857 
     47 S47       -75.9634   26.1143  -71.0142 S.3       11 UNK        -0.2512 
     48 C48       -77.1827   27.2115  -70.2245 C.3       11 UNK         0.0225 
     49 N         -76.3928   23.9912  -74.3872 N.am      5 UNK        -0.4615 
     50 C         -75.6428   23.2358  -75.1998 C.2       4 UNK         0.5053 
     51 O         -74.4477   23.4373  -75.4097 O.2       4 UNK        -0.5105 
     52 CA        -76.3526   22.0764  -75.9197 C.3       4 UNK         0.0263 
     53 CB        -76.3982   20.8310  -75.0204 C.3       4 UNK        -0.1981 
     54 N         -77.7097   22.4191  -76.3533 N.am      4 UNK        -0.4224 
     55 C         -77.9902   23.3342  -77.2918 C.2       3 UNK         0.4895 
     56 O         -77.1351   23.9606  -77.9134 O.2       3 UNK        -0.5091 
     57 CA        -79.4726   23.6376  -77.5557 C.3       3 UNK         0.0250 
     58 CB        -80.0494   22.6529  -78.5852 C.3       3 UNK        -0.1996 
     59 N         -80.3095   23.6392  -76.3516 N.am      3 UNK        -0.4254 
     60 C         -80.1229   24.4298  -75.2857 C.2       2 UNK         0.5004 
     61 O         -79.1570   25.1842  -75.1422 O.2       2 UNK        -0.5226 
     62 CA        -81.1829   24.3441  -74.1773 C.3       2 UNK         0.0269 
     63 CB        -80.5981   23.6934  -72.9134 C.3       2 UNK        -0.1926 
     64 N         -81.6916   25.6731  -73.8431 N.am      2 UNK        -0.4687 
     65 C         -82.4524   26.4292  -74.6489 C.2       1 UNK         0.5165 
     66 O         -82.8878   26.0426  -75.7344 O.2       1 UNK        -0.5079 
     67 H67       -84.5377   25.7945  -72.6921 H         1 UNK         0.0900 
     68 H68       -85.4167   27.3287  -72.8397 H         1 UNK         0.0900 
     69 H69       -85.3917   26.4658  -71.3100 H         1 UNK         0.0900 
     70 H70       -81.8903   28.4799  -72.3726 H         1 UNK         0.2959 
     71 H71       -83.8577   28.0063  -74.4258 H         1 UNK         0.1079 
     72 H72       -82.1467   28.8631  -75.9617 H         1 UNK         0.0837 
     73 H73       -82.3724   29.9300  -74.6137 H         1 UNK         0.0837 
     74 H74       -80.0402   31.1143  -73.6896 H         1 UNK         0.0685 
     75 H75       -80.8602   30.0681  -72.5566 H         1 UNK         0.0685 
     76 H76       -79.3203   27.9578  -71.7492 H         1 UNK         0.1434 
     77 H77       -75.4896   29.3347  -70.4108 H         1 UNK         0.1329 
     78 H78       -77.8683   31.7976  -72.9926 H         1 UNK         0.1335 
     79 H79       -75.9592   32.7425  -71.5908 H         1 UNK         0.0680 
     80 H80       -74.8777   31.6467  -70.7736 H         1 UNK         0.0680 
     81 H81       -72.7362   31.8383  -71.4620 H         1 UNK         0.1032 
     82 H82       -72.1387   32.2088  -73.0386 H         1 UNK         0.1032 
     83 H83       -71.1511   30.1325  -72.3709 H         1 UNK         0.0461 
     84 H84       -73.7032   27.3103  -71.3176 H         1 UNK         0.3453 
     85 H85       -73.5072   27.7105  -72.9944 H         1 UNK         0.3453 
     86 H86       -72.9429   28.9334  -74.2823 H         1 UNK         0.2984 
     87 H87       -72.4877   29.7861  -76.7784 H         1 UNK         0.0554 
     88 H88       -70.6160   29.2840  -78.3573 H         1 UNK         0.0847 
     89 H89       -69.4601   29.3813  -77.0295 H         1 UNK         0.0847 
     90 H90       -70.3650   30.8057  -77.5179 H         1 UNK         0.0847 
     91 H91       -72.6447   27.5979  -76.7015 H         1 UNK         0.3141 
     92 H92       -70.5138   24.9517  -76.3243 H         1 UNK         0.0743 
     93 H93       -72.4522   25.4869  -74.0088 H         1 UNK         0.0784 
     94 H94       -71.8543   23.9065  -74.5105 H         1 UNK         0.0784 
     95 H95       -70.7481   25.0960  -73.8461 H         1 UNK         0.0784 
     96 H96       -73.3783   25.0053  -76.2728 H         1 UNK         0.3213 
     97 H97       -73.8500   25.8762  -79.6925 H         1 UNK         0.0855 
     98 H98       -74.3065   23.1872  -78.2945 H         1 UNK         0.0814 
     99 H99       -73.3918   23.4154  -79.7786 H         1 UNK         0.0814 
    100 H100      -75.1149   23.7500  -79.7573 H         1 UNK         0.0814 
    101 H101      -75.7650   25.1662  -77.7516 H         1 UNK         0.3105 
    102 H102      -76.1584   28.4440  -76.2716 H         1 UNK         0.0547 
    103 H103      -77.5507   28.2656  -78.3233 H         1 UNK         0.0837 
    104 H104      -77.8849   26.5744  -77.9821 H         1 UNK         0.0837 
    105 H105      -78.4835   27.8279  -76.9006 H         1 UNK         0.0837 
    106 H106      -77.3559   25.9546  -75.5892 H         1 UNK         0.3020 
    107 H107      -74.9394   24.8674  -73.2207 H         1 UNK         0.1245 
    108 H108      -77.4315   24.6641  -72.1688 H         1 UNK         0.0781 
    109 H109      -77.6053   26.2703  -72.8088 H         1 UNK         0.0781 
    110 H110      -76.8392   27.4500  -69.2169 H         1 UNK         0.0836 
    111 H111      -78.1266   26.6772  -70.1050 H         1 UNK         0.0836 
    112 H112      -77.3851   23.8120  -74.3348 H         1 UNK         0.3022 
    113 H113      -75.7678   21.8319  -76.8088 H         1 UNK         0.0747 
    114 H114      -76.8230   19.9765  -75.5474 H         1 UNK         0.0793 
    115 H115      -75.3950   20.5456  -74.7003 H         1 UNK         0.0793 
    116 H116      -76.9913   21.0006  -74.1208 H         1 UNK         0.0793 
    117 H117      -78.4757   21.9483  -75.8943 H         1 UNK         0.3047 
    118 H118      -79.5240   24.6414  -77.9823 H         1 UNK         0.0822 
    119 H119      -81.0663   22.9249  -78.8689 H         1 UNK         0.0807 
    120 H120      -80.0680   21.6312  -78.2037 H         1 UNK         0.0807 
    121 H121      -79.4518   22.6489  -79.4981 H         1 UNK         0.0807 
    122 H122      -81.1278   23.0477  -76.3780 H         1 UNK         0.2946 
    123 H123      -82.0205   23.7351  -74.5250 H         1 UNK         0.1144 
    124 H124      -79.7902   24.2900  -72.4895 H         1 UNK         0.0793 
    125 H125      -80.1957   22.7032  -73.1312 H         1 UNK         0.0793 
    126 H126      -81.3602   23.5700  -72.1437 H         1 UNK         0.0793 
    127 H127      -81.3560   26.0870  -72.9862 H         1 UNK         0.2896 
@<TRIPOS>BOND
     1    1    2 1    
     2    1   67 1    
     3    1   68 1    
     4    1   69 1    
     5    2    3 2    
     6    2    4 am   BACKBONE|DICT|INTERRES
     7    4    5 1    
     8    4   70 1    
     9    5    6 1    
    10    5   65 1    
    11    5   71 1    
    12    6    7 1    
    13    6   72 1    
    14    6   73 1    
    15    7    8 1    
    16    8    9 1    
    17    8   74 1    
    18    8   75 1    
    19    9   10 ar   
    20    9   14 ar   
    21   10   11 ar   
    22   10   76 1    
    23   11   12 ar   
    24   11   48 1    
    25   12   13 ar   
    26   12   77 1    
    27   13   14 ar   
    28   13   15 1    
    29   14   78 1    
    30   15   16 1    
    31   15   79 1    
    32   15   80 1    
    33   16   17 1    
    34   17   18 1    
    35   17   81 1    
    36   17   82 1    
    37   18   19 1    
    38   18   22 1    
    39   18   83 1    
    40   19   20 am   BACKBONE|DICT|INTERRES
    41   19   21 2    
    42   20   84 1    
    43   20   85 1    
    44   22   23 am   BACKBONE|DICT|INTERRES
    45   22   86 1    
    46   23   24 2    
    47   23   25 1    
    48   25   26 1    
    49   25   27 1    
    50   25   87 1    
    51   26   88 1    
    52   26   89 1    
    53   26   90 1    
    54   27   28 am   BACKBONE|DICT|INTERRES
    55   27   91 1    
    56   28   29 2    
    57   28   30 1    
    58   30   31 1    
    59   30   32 1    
    60   30   92 1    
    61   31   93 1    
    62   31   94 1    
    63   31   95 1    
    64   32   33 am   BACKBONE|DICT|INTERRES
    65   32   96 1    
    66   33   34 2    
    67   33   35 1    
    68   35   36 1    
    69   35   37 1    
    70   35   97 1    
    71   36   98 1    
    72   36   99 1    
    73   36  100 1    
    74   37   38 am   BACKBONE|DICT|INTERRES
    75   37  101 1    
    76   38   39 2    
    77   38   40 1    
    78   40   41 1    
    79   40   42 1    
    80   40  102 1    
    81   41  103 1    
    82   41  104 1    
    83   41  105 1    
    84   42   43 am   BACKBONE|DICT|INTERRES
    85   42  106 1    
    86   43   44 2    
    87   43   45 1    
    88   45   46 1    
    89   45   49 1    
    90   45  107 1    
    91   46   47 1    
    92   46  108 1    
    93   46  109 1    
    94   47   48 1    
    95   48  110 1    
    96   48  111 1    
    97   49   50 am   BACKBONE|DICT|INTERRES
    98   49  112 1    
    99   50   51 2    
   100   50   52 1    
   101   52   53 1    
   102   52   54 1    
   103   52  113 1    
   104   53  114 1    
   105   53  115 1    
   106   53  116 1    
   107   54   55 am   BACKBONE|DICT|INTERRES
   108   54  117 1    
   109   55   56 2    
   110   55   57 1    
   111   57   58 1    
   112   57   59 1    
   113   57  118 1    
   114   58  119 1    
   115   58  120 1    
   116   58  121 1    
   117   59   60 am   BACKBONE|DICT|INTERRES
   118   59  122 1    
   119   60   61 2    
   120   60   62 1    
   121   62   63 1    
   122   62   64 1    
   123   62  123 1    
   124   63  124 1    
   125   63  125 1    
   126   63  126 1    
   127   64   65 am   BACKBONE|DICT|INTERRES
   128   64  127 1    
   129   65   66 2    
@<TRIPOS>SUBSTRUCTURE
     1 UNK         1 GROUP             0       ****    0 ROOT    
