@<TRIPOS>MOLECULE
3R135
127   129    1
SMALL
USER_CHARGES


@<TRIPOS>ATOM
      1 CA        -84.2218   28.5369  -73.9769 C.3       0 UNK        -0.1998 
      2 C         -83.2744   28.4259  -72.7850 C.2       0 UNK         0.4909 
      3 O         -83.7417   28.3194  -71.6530 O.2       0 UNK        -0.5240 
      4 N         -81.9465   28.4537  -72.9707 N.am      1 UNK        -0.4739 
      5 CA        -81.2238   28.5219  -74.2490 C.3       1 UNK         0.0864 
      6 C6        -79.7257   28.8669  -74.0471 C.3       11 UNK        -0.0881 
      7 S7        -79.4663   30.5822  -73.4794 S.3       11 UNK        -0.2682 
      8 C8        -79.4533   30.4348  -71.6631 C.3       11 UNK         0.0289 
      9 C9        -78.2386   29.6815  -71.1410 C.ar      11 UNK        -0.0687 
     10 C10       -78.3471   28.3384  -70.7677 C.ar      11 UNK        -0.0823 
     11 C11       -77.2432   27.6532  -70.2533 C.ar      11 UNK        -0.0830 
     12 C12       -76.0260   28.3245  -70.1042 C.ar      11 UNK        -0.1021 
     13 C13       -75.9046   29.6672  -70.4724 C.ar      11 UNK        -0.0753 
     14 C14       -77.0149   30.3408  -70.9912 C.ar      11 UNK        -0.0933 
     15 C15       -74.5816   30.3920  -70.2725 C.3       11 UNK         0.0166 
     16 S16       -73.3880   30.0251  -71.5969 S.3       11 UNK        -0.2615 
     17 C17       -74.0594   30.9959  -72.9908 C.3       11 UNK        -0.0865 
     18 CA        -74.3467   30.1363  -74.2588 C.3       10 UNK         0.0862 
     19 C         -75.0872   30.9477  -75.3686 C.2       10 UNK         0.5551 
     20 N         -74.9578   30.5941  -76.6418 N.am      10 UNK        -0.7319 
     21 O         -75.8019   31.9041  -75.0784 O.2       10 UNK        -0.5018 
     22 N         -73.1580   29.4020  -74.7388 N.am      10 UNK        -0.4509 
     23 C         -72.0284   29.9663  -75.1916 C.2       10 UNK         0.4899 
     24 O         -71.8656   31.1856  -75.2640 O.2       10 UNK        -0.4839 
     25 CA        -70.8776   29.0629  -75.6795 C.3       9 UNK         0.0222 
     26 CB        -69.5621   29.3746  -74.9349 C.3       9 UNK        -0.1966 
     27 N         -71.1438   27.6198  -75.6964 N.am      9 UNK        -0.4218 
     28 C         -71.2988   26.7685  -74.6737 C.2       9 UNK         0.5020 
     29 O         -71.2804   27.1097  -73.4906 O.2       9 UNK        -0.5274 
     30 CA        -71.4914   25.2799  -75.0475 C.3       8 UNK         0.0270 
     31 CB        -71.8595   24.4091  -73.8319 C.3       8 UNK        -0.1976 
     32 N         -72.4910   25.0762  -76.1035 N.am      8 UNK        -0.4313 
     33 C         -72.3191   25.3454  -77.4055 C.2       8 UNK         0.5041 
     34 O         -71.2568   25.7528  -77.8777 O.2       8 UNK        -0.5577 
     35 CA        -73.5455   25.2141  -78.3221 C.3       7 UNK         0.0284 
     36 CB        -73.7293   23.7585  -78.7788 C.3       7 UNK        -0.1958 
     37 N         -74.7757   25.7049  -77.6951 N.am      7 UNK        -0.4454 
     38 C         -74.9900   26.9764  -77.3206 C.2       7 UNK         0.5089 
     39 O         -74.1986   27.8986  -77.5226 O.2       7 UNK        -0.5125 
     40 CA        -76.2894   27.2592  -76.5459 C.3       6 UNK         0.0408 
     41 CB        -77.4917   27.3436  -77.4985 C.3       6 UNK        -0.1791 
     42 N         -76.5456   26.2624  -75.5075 N.am      6 UNK        -0.4762 
     43 C         -75.7472   26.0200  -74.4571 C.2       6 UNK         0.5007 
     44 O         -74.7339   26.6705  -74.2039 O.2       6 UNK        -0.5032 
     45 CA        -76.1127   24.8042  -73.5841 C.3       5 UNK         0.0783 
     46 C46       -77.1201   25.1595  -72.4552 C.3       11 UNK        -0.0857 
     47 S47       -76.3195   25.0908  -70.8188 S.3       11 UNK        -0.2512 
     48 C48       -77.3732   26.1968  -69.8300 C.3       11 UNK         0.0225 
     49 N         -76.5849   23.6894  -74.4089 N.am      5 UNK        -0.4615 
     50 C         -75.7914   22.9197  -75.1636 C.2       4 UNK         0.5053 
     51 O         -74.5720   23.0652  -75.2403 O.2       4 UNK        -0.5105 
     52 CA        -76.4772   21.8190  -75.9906 C.3       4 UNK         0.0263 
     53 CB        -76.7025   20.5623  -75.1351 C.3       4 UNK        -0.1981 
     54 N         -77.7501   22.2513  -76.5742 N.am      4 UNK        -0.4224 
     55 C         -77.8549   23.1879  -77.5266 C.2       3 UNK         0.4895 
     56 O         -76.8915   23.7719  -78.0207 O.2       3 UNK        -0.5091 
     57 CA        -79.2733   23.5698  -77.9813 C.3       3 UNK         0.0250 
     58 CB        -79.7984   22.5555  -79.0102 C.3       3 UNK        -0.1996 
     59 N         -80.2614   23.7373  -76.9066 N.am      3 UNK        -0.4254 
     60 C         -80.1094   24.4951  -75.8111 C.2       2 UNK         0.5004 
     61 O         -79.0418   24.9995  -75.4585 O.2       2 UNK        -0.5226 
     62 CA        -81.3607   24.7256  -74.9475 C.3       2 UNK         0.0269 
     63 CB        -81.4284   23.6833  -73.8202 C.3       2 UNK        -0.1926 
     64 N         -81.3656   26.0688  -74.3575 N.am      2 UNK        -0.4687 
     65 C         -81.3603   27.2157  -75.0557 C.2       1 UNK         0.5165 
     66 O         -81.4788   27.2747  -76.2801 O.2       1 UNK        -0.5079 
     67 H67       -83.9504   29.3650  -74.6301 H         1 UNK         0.0900 
     68 H68       -85.2410   28.7151  -73.6344 H         1 UNK         0.0900 
     69 H69       -84.2252   27.6143  -74.5562 H         1 UNK         0.0900 
     70 H70       -81.3607   28.3988  -72.1522 H         1 UNK         0.2959 
     71 H71       -81.6648   29.3162  -74.8543 H         1 UNK         0.1079 
     72 H72       -79.2422   28.1610  -73.3717 H         1 UNK         0.0837 
     73 H73       -79.1857   28.7783  -74.9919 H         1 UNK         0.0837 
     74 H74       -79.4588   31.4399  -71.2387 H         1 UNK         0.0685 
     75 H75       -80.3757   29.9671  -71.3196 H         1 UNK         0.0685 
     76 H76       -79.2946   27.8278  -70.8683 H         1 UNK         0.1434 
     77 H77       -75.1704   27.7997  -69.7010 H         1 UNK         0.1329 
     78 H78       -76.9343   31.3830  -71.2681 H         1 UNK         0.1335 
     79 H79       -74.1463   30.0890  -69.3191 H         1 UNK         0.0680 
     80 H80       -74.7347   31.4703  -70.2040 H         1 UNK         0.0680 
     81 H81       -74.9713   31.4953  -72.6632 H         1 UNK         0.1032 
     82 H82       -73.3587   31.7998  -73.2191 H         1 UNK         0.1032 
     83 H83       -75.0613   29.3682  -73.9619 H         1 UNK         0.0461 
     84 H84       -75.4348   31.1264  -77.3510 H         1 UNK         0.3453 
     85 H85       -74.4269   29.7686  -76.8981 H         1 UNK         0.3453 
     86 H86       -73.2266   28.3929  -74.7003 H         1 UNK         0.2984 
     87 H87       -70.7254   29.3299  -76.7262 H         1 UNK         0.0554 
     88 H88       -68.7362   28.7741  -75.3160 H         1 UNK         0.0847 
     89 H89       -69.6486   29.1882  -73.8641 H         1 UNK         0.0847 
     90 H90       -69.2814   30.4215  -75.0566 H         1 UNK         0.0847 
     91 H91       -71.1839   27.1999  -76.6227 H         1 UNK         0.3141 
     92 H92       -70.5289   24.9256  -75.4221 H         1 UNK         0.0743 
     93 H93       -71.9691   23.3608  -74.1106 H         1 UNK         0.0784 
     94 H94       -71.0864   24.4601  -73.0642 H         1 UNK         0.0784 
     95 H95       -72.7940   24.7353  -73.3754 H         1 UNK         0.0784 
     96 H96       -73.3904   24.7157  -75.8034 H         1 UNK         0.3213 
     97 H97       -73.3612   25.8268  -79.2071 H         1 UNK         0.0855 
     98 H98       -73.9591   23.0975  -77.9427 H         1 UNK         0.0814 
     99 H99       -72.8235   23.3809  -79.2551 H         1 UNK         0.0814 
    100 H100      -74.5371   23.6708  -79.5056 H         1 UNK         0.0814 
    101 H101      -75.5174   25.0229  -77.5548 H         1 UNK         0.3105 
    102 H102      -76.1882   28.2215  -76.0446 H         1 UNK         0.0547 
    103 H103      -77.3525   28.1423  -78.2280 H         1 UNK         0.0837 
    104 H104      -77.6343   26.4169  -78.0536 H         1 UNK         0.0837 
    105 H105      -78.4159   27.5520  -76.9601 H         1 UNK         0.0837 
    106 H106      -77.3935   25.7041  -75.6039 H         1 UNK         0.3020 
    107 H107      -75.1747   24.4743  -73.1316 H         1 UNK         0.1245 
    108 H108      -77.9569   24.4592  -72.4354 H         1 UNK         0.0781 
    109 H109      -77.5728   26.1417  -72.6043 H         1 UNK         0.0781 
    110 H110      -77.0881   26.1077  -68.7808 H         1 UNK         0.0836 
    111 H111      -78.4080   25.8566  -69.8947 H         1 UNK         0.0836 
    112 H112      -77.5868   23.5788  -74.4838 H         1 UNK         0.3022 
    113 H113      -75.8042   21.5560  -76.8097 H         1 UNK         0.0747 
    114 H114      -77.1089   19.7446  -75.7307 H         1 UNK         0.0793 
    115 H115      -75.7634   20.2113  -74.7046 H         1 UNK         0.0793 
    116 H116      -77.3893   20.7509  -74.3090 H         1 UNK         0.0793 
    117 H117      -78.5940   21.8274  -76.2173 H         1 UNK         0.3047 
    118 H118      -79.1931   24.5374  -78.4805 H         1 UNK         0.0822 
    119 H119      -79.9662   21.5748  -78.5633 H         1 UNK         0.0807 
    120 H120      -79.0876   22.4239  -79.8276 H         1 UNK         0.0807 
    121 H121      -80.7373   22.8880  -79.4533 H         1 UNK         0.0807 
    122 H122      -81.1728   23.3405  -77.0861 H         1 UNK         0.2946 
    123 H123      -82.2479   24.6324  -75.5777 H         1 UNK         0.1144 
    124 H124      -80.5644   23.7490  -73.1574 H         1 UNK         0.0793 
    125 H125      -81.4535   22.6699  -74.2234 H         1 UNK         0.0793 
    126 H126      -82.3262   23.8107  -73.2149 H         1 UNK         0.0793 
    127 H127      -81.2722   26.1217  -73.3542 H         1 UNK         0.2896 
@<TRIPOS>BOND
     1    1    2 1    
     2    1   67 1    
     3    1   68 1    
     4    1   69 1    
     5    2    3 2    
     6    2    4 am   BACKBONE|DICT|INTERRES
     7    4    5 1    
     8    4   70 1    
     9    5    6 1    
    10    5   65 1    
    11    5   71 1    
    12    6    7 1    
    13    6   72 1    
    14    6   73 1    
    15    7    8 1    
    16    8    9 1    
    17    8   74 1    
    18    8   75 1    
    19    9   10 ar   
    20    9   14 ar   
    21   10   11 ar   
    22   10   76 1    
    23   11   12 ar   
    24   11   48 1    
    25   12   13 ar   
    26   12   77 1    
    27   13   14 ar   
    28   13   15 1    
    29   14   78 1    
    30   15   16 1    
    31   15   79 1    
    32   15   80 1    
    33   16   17 1    
    34   17   18 1    
    35   17   81 1    
    36   17   82 1    
    37   18   19 1    
    38   18   22 1    
    39   18   83 1    
    40   19   20 am   BACKBONE|DICT|INTERRES
    41   19   21 2    
    42   20   84 1    
    43   20   85 1    
    44   22   23 am   BACKBONE|DICT|INTERRES
    45   22   86 1    
    46   23   24 2    
    47   23   25 1    
    48   25   26 1    
    49   25   27 1    
    50   25   87 1    
    51   26   88 1    
    52   26   89 1    
    53   26   90 1    
    54   27   28 am   BACKBONE|DICT|INTERRES
    55   27   91 1    
    56   28   29 2    
    57   28   30 1    
    58   30   31 1    
    59   30   32 1    
    60   30   92 1    
    61   31   93 1    
    62   31   94 1    
    63   31   95 1    
    64   32   33 am   BACKBONE|DICT|INTERRES
    65   32   96 1    
    66   33   34 2    
    67   33   35 1    
    68   35   36 1    
    69   35   37 1    
    70   35   97 1    
    71   36   98 1    
    72   36   99 1    
    73   36  100 1    
    74   37   38 am   BACKBONE|DICT|INTERRES
    75   37  101 1    
    76   38   39 2    
    77   38   40 1    
    78   40   41 1    
    79   40   42 1    
    80   40  102 1    
    81   41  103 1    
    82   41  104 1    
    83   41  105 1    
    84   42   43 am   BACKBONE|DICT|INTERRES
    85   42  106 1    
    86   43   44 2    
    87   43   45 1    
    88   45   46 1    
    89   45   49 1    
    90   45  107 1    
    91   46   47 1    
    92   46  108 1    
    93   46  109 1    
    94   47   48 1    
    95   48  110 1    
    96   48  111 1    
    97   49   50 am   BACKBONE|DICT|INTERRES
    98   49  112 1    
    99   50   51 2    
   100   50   52 1    
   101   52   53 1    
   102   52   54 1    
   103   52  113 1    
   104   53  114 1    
   105   53  115 1    
   106   53  116 1    
   107   54   55 am   BACKBONE|DICT|INTERRES
   108   54  117 1    
   109   55   56 2    
   110   55   57 1    
   111   57   58 1    
   112   57   59 1    
   113   57  118 1    
   114   58  119 1    
   115   58  120 1    
   116   58  121 1    
   117   59   60 am   BACKBONE|DICT|INTERRES
   118   59  122 1    
   119   60   61 2    
   120   60   62 1    
   121   62   63 1    
   122   62   64 1    
   123   62  123 1    
   124   63  124 1    
   125   63  125 1    
   126   63  126 1    
   127   64   65 am   BACKBONE|DICT|INTERRES
   128   64  127 1    
   129   65   66 2    
@<TRIPOS>SUBSTRUCTURE
     1 UNK         1 GROUP             0       ****    0 ROOT    
