@<TRIPOS>MOLECULE
3R135
127   129    1
SMALL
USER_CHARGES


@<TRIPOS>ATOM
      1 CA        -83.8626   30.2687  -73.4970 C.3       0 UNK        -0.1998 
      2 C         -83.2189   29.6839  -74.7451 C.2       0 UNK         0.4909 
      3 O         -83.9218   29.1504  -75.6039 O.2       0 UNK        -0.5240 
      4 N         -81.8876   29.7841  -74.8525 N.am      1 UNK        -0.4739 
      5 CA        -81.0813   29.2429  -75.9551 C.3       1 UNK         0.0864 
      6 C6        -79.6551   29.8484  -75.9760 C.3       11 UNK        -0.0881 
      7 S7        -78.7862   29.7344  -74.3722 S.3       11 UNK        -0.2682 
      8 C8        -77.4708   28.5578  -74.7892 C.3       11 UNK         0.0289 
      9 C9        -76.8166   28.0092  -73.5349 C.ar      11 UNK        -0.0687 
     10 C10       -77.3246   26.8563  -72.9347 C.ar      11 UNK        -0.0823 
     11 C11       -76.7114   26.3123  -71.8020 C.ar      11 UNK        -0.0830 
     12 C12       -75.5849   26.9428  -71.2625 C.ar      11 UNK        -0.1021 
     13 C13       -75.0712   28.1034  -71.8529 C.ar      11 UNK        -0.0753 
     14 C14       -75.6972   28.6364  -72.9844 C.ar      11 UNK        -0.0933 
     15 C15       -73.8345   28.7810  -71.2830 C.3       11 UNK         0.0166 
     16 S16       -72.4378   28.6659  -72.4422 S.3       11 UNK        -0.2615 
     17 C17       -71.1314   29.5370  -71.5162 C.3       11 UNK        -0.0865 
     18 CA        -71.1823   31.0816  -71.6611 C.3       10 UNK         0.0862 
     19 C         -70.0497   31.7387  -70.8177 C.2       10 UNK         0.5551 
     20 N         -69.0560   32.3796  -71.4212 N.am      10 UNK        -0.7319 
     21 O         -70.0772   31.6639  -69.5917 O.2       10 UNK        -0.5018 
     22 N         -71.2442   31.5096  -73.0703 N.am      10 UNK        -0.4509 
     23 C         -71.5819   32.7342  -73.4899 C.2       10 UNK         0.4899 
     24 O         -71.8897   33.6558  -72.7338 O.2       10 UNK        -0.4839 
     25 CA        -71.5923   32.9839  -75.0086 C.3       9 UNK         0.0222 
     26 CB        -70.1602   33.1038  -75.5680 C.3       9 UNK        -0.1966 
     27 N         -72.4056   32.0301  -75.7777 N.am      9 UNK        -0.4218 
     28 C         -72.1919   30.7249  -75.9923 C.2       9 UNK         0.5020 
     29 O         -71.2274   30.0918  -75.5516 O.2       9 UNK        -0.5274 
     30 CA        -73.2296   30.0116  -76.8660 C.3       8 UNK         0.0270 
     31 CB        -73.0076   30.3209  -78.3586 C.3       8 UNK        -0.1976 
     32 N         -73.1206   28.5760  -76.6330 N.am      8 UNK        -0.4313 
     33 C         -74.0997   27.6834  -76.8029 C.2       8 UNK         0.5041 
     34 O         -75.2161   27.9721  -77.2421 O.2       8 UNK        -0.5577 
     35 CA        -73.7697   26.2316  -76.4142 C.3       7 UNK         0.0284 
     36 CB        -73.3034   26.1245  -74.9506 C.3       7 UNK        -0.1958 
     37 N         -74.9375   25.3693  -76.5792 N.am      7 UNK        -0.4454 
     38 C         -75.2328   24.6401  -77.6620 C.2       7 UNK         0.5089 
     39 O         -74.5340   24.6003  -78.6766 O.2       7 UNK        -0.5125 
     40 CA        -76.5247   23.7969  -77.5685 C.3       6 UNK         0.0408 
     41 CB        -76.5744   22.6500  -78.6000 C.3       6 UNK        -0.1791 
     42 N         -76.7731   23.3023  -76.2053 N.am      6 UNK        -0.4762 
     43 C         -75.9727   22.4930  -75.4847 C.2       6 UNK         0.5007 
     44 O         -74.9763   21.9236  -75.9302 O.2       6 UNK        -0.5032 
     45 CA        -76.3193   22.3455  -73.9939 C.3       5 UNK         0.0783 
     46 C46       -75.8998   23.6373  -73.2563 C.3       11 UNK        -0.0857 
     47 S47       -76.1656   23.5930  -71.4531 S.3       11 UNK        -0.2512 
     48 C48       -77.2588   25.0295  -71.1841 C.3       11 UNK         0.0225 
     49 N         -77.7432   22.0355  -73.8585 N.am      5 UNK        -0.4615 
     50 C         -78.2273   20.7885  -73.7762 C.2       4 UNK         0.5053 
     51 O         -77.5303   19.7863  -73.6154 O.2       4 UNK        -0.5105 
     52 CA        -79.7486   20.6242  -73.9479 C.3       4 UNK         0.0263 
     53 CB        -80.4667   20.8030  -72.6005 C.3       4 UNK        -0.1981 
     54 N         -80.3060   21.5615  -74.9265 N.am      4 UNK        -0.4224 
     55 C         -79.9638   21.6225  -76.2232 C.2       3 UNK         0.4895 
     56 O         -79.2590   20.7820  -76.7818 O.2       3 UNK        -0.5091 
     57 CA        -80.4641   22.8341  -77.0340 C.3       3 UNK         0.0250 
     58 CB        -81.4778   22.3903  -78.1015 C.3       3 UNK        -0.1996 
     59 N         -81.0626   23.8990  -76.2214 N.am      3 UNK        -0.4254 
     60 C         -80.4159   24.6850  -75.3486 C.2       2 UNK         0.5004 
     61 O         -79.2052   24.6084  -75.1123 O.2       2 UNK        -0.5226 
     62 CA        -81.3069   25.6538  -74.5483 C.3       2 UNK         0.0269 
     63 CB        -81.2082   25.3712  -73.0399 C.3       2 UNK        -0.1926 
     64 N         -81.0529   27.0757  -74.7933 N.am      2 UNK        -0.4687 
     65 C         -81.0792   27.6970  -75.9834 C.2       1 UNK         0.5165 
     66 O         -81.1722   27.1152  -77.0650 O.2       1 UNK        -0.5079 
     67 H67       -84.3919   29.4902  -72.9483 H         1 UNK         0.0900 
     68 H68       -84.5808   31.0408  -73.7719 H         1 UNK         0.0900 
     69 H69       -83.1258   30.7137  -72.8285 H         1 UNK         0.0900 
     70 H70       -81.3582   30.2347  -74.1185 H         1 UNK         0.2959 
     71 H71       -81.5695   29.5537  -76.8820 H         1 UNK         0.1079 
     72 H72       -79.0540   29.4006  -76.7702 H         1 UNK         0.0837 
     73 H73       -79.7220   30.9072  -76.2312 H         1 UNK         0.0837 
     74 H74       -77.8764   27.7369  -75.3836 H         1 UNK         0.0685 
     75 H75       -76.7325   29.0619  -75.4132 H         1 UNK         0.0685 
     76 H76       -78.1861   26.3708  -73.3707 H         1 UNK         0.1434 
     77 H77       -75.1014   26.5182  -70.3933 H         1 UNK         0.1329 
     78 H78       -75.2982   29.5287  -73.4475 H         1 UNK         0.1335 
     79 H79       -73.5512   28.3321  -70.3297 H         1 UNK         0.0680 
     80 H80       -74.0580   29.8299  -71.0837 H         1 UNK         0.0680 
     81 H81       -70.1705   29.1610  -71.8727 H         1 UNK         0.1032 
     82 H82       -71.1942   29.2454  -70.4658 H         1 UNK         0.1032 
     83 H83       -72.1152   31.4135  -71.2017 H         1 UNK         0.0461 
     84 H84       -69.0285   32.4425  -72.4259 H         1 UNK         0.3453 
     85 H85       -68.3293   32.8034  -70.8660 H         1 UNK         0.3453 
     86 H86       -71.0481   30.8033  -73.7745 H         1 UNK         0.2984 
     87 H87       -72.0723   33.9525  -75.1582 H         1 UNK         0.0554 
     88 H88       -70.1695   33.3603  -76.6273 H         1 UNK         0.0847 
     89 H89       -69.5927   32.1800  -75.4536 H         1 UNK         0.0847 
     90 H90       -69.6062   33.8883  -75.0509 H         1 UNK         0.0847 
     91 H91       -73.2455   32.4280  -76.1759 H         1 UNK         0.3141 
     92 H92       -74.2234   30.3489  -76.5625 H         1 UNK         0.0743 
     93 H93       -73.7532   29.8264  -78.9816 H         1 UNK         0.0784 
     94 H94       -73.0820   31.3908  -78.5565 H         1 UNK         0.0784 
     95 H95       -72.0224   29.9938  -78.6937 H         1 UNK         0.0784 
     96 H96       -72.2405   28.3003  -76.2121 H         1 UNK         0.3213 
     97 H97       -72.9628   25.8862  -77.0641 H         1 UNK         0.0855 
     98 H98       -74.0530   26.5075  -74.2568 H         1 UNK         0.0814 
     99 H99       -72.3836   26.6842  -74.7802 H         1 UNK         0.0814 
    100 H100      -73.0946   25.0900  -74.6782 H         1 UNK         0.0814 
    101 H101      -75.6145   25.3930  -75.8327 H         1 UNK         0.3105 
    102 H102      -77.3457   24.4786  -77.7955 H         1 UNK         0.0547 
    103 H103      -76.5379   23.0399  -79.6178 H         1 UNK         0.0837 
    104 H104      -75.7343   21.9647  -78.4868 H         1 UNK         0.0837 
    105 H105      -77.4927   22.0709  -78.5092 H         1 UNK         0.0837 
    106 H106      -77.5743   23.7248  -75.7427 H         1 UNK         0.3020 
    107 H107      -75.7193   21.5240  -73.5947 H         1 UNK         0.1245 
    108 H108      -76.4244   24.4870  -73.6883 H         1 UNK         0.0781 
    109 H109      -74.8371   23.8335  -73.4110 H         1 UNK         0.0781 
    110 H110      -77.3960   25.1750  -70.1118 H         1 UNK         0.0836 
    111 H111      -78.2444   24.7947  -71.5874 H         1 UNK         0.0836 
    112 H112      -78.3880   22.8016  -73.9994 H         1 UNK         0.3022 
    113 H113      -79.9367   19.6113  -74.3103 H         1 UNK         0.0747 
    114 H114      -81.5380   20.6235  -72.6938 H         1 UNK         0.0793 
    115 H115      -80.0853   20.0977  -71.8606 H         1 UNK         0.0793 
    116 H116      -80.3266   21.8062  -72.1955 H         1 UNK         0.0793 
    117 H117      -80.9221   22.2757  -74.5695 H         1 UNK         0.3047 
    118 H118      -79.5961   23.2563  -77.5437 H         1 UNK         0.0822 
    119 H119      -81.7773   23.2246  -78.7362 H         1 UNK         0.0807 
    120 H120      -82.3776   21.9668  -77.6535 H         1 UNK         0.0807 
    121 H121      -81.0500   21.6284  -78.7550 H         1 UNK         0.0807 
    122 H122      -82.0547   24.0407  -76.3488 H         1 UNK         0.2946 
    123 H123      -82.3446   25.4770  -74.8400 H         1 UNK         0.1144 
    124 H124      -81.9533   25.9386  -72.4819 H         1 UNK         0.0793 
    125 H125      -80.2287   25.6295  -72.6411 H         1 UNK         0.0793 
    126 H126      -81.3809   24.3162  -72.8227 H         1 UNK         0.0793 
    127 H127      -80.9528   27.6590  -73.9754 H         1 UNK         0.2896 
@<TRIPOS>BOND
     1    1    2 1    
     2    1   67 1    
     3    1   68 1    
     4    1   69 1    
     5    2    3 2    
     6    2    4 am   BACKBONE|DICT|INTERRES
     7    4    5 1    
     8    4   70 1    
     9    5    6 1    
    10    5   65 1    
    11    5   71 1    
    12    6    7 1    
    13    6   72 1    
    14    6   73 1    
    15    7    8 1    
    16    8    9 1    
    17    8   74 1    
    18    8   75 1    
    19    9   10 ar   
    20    9   14 ar   
    21   10   11 ar   
    22   10   76 1    
    23   11   12 ar   
    24   11   48 1    
    25   12   13 ar   
    26   12   77 1    
    27   13   14 ar   
    28   13   15 1    
    29   14   78 1    
    30   15   16 1    
    31   15   79 1    
    32   15   80 1    
    33   16   17 1    
    34   17   18 1    
    35   17   81 1    
    36   17   82 1    
    37   18   19 1    
    38   18   22 1    
    39   18   83 1    
    40   19   20 am   BACKBONE|DICT|INTERRES
    41   19   21 2    
    42   20   84 1    
    43   20   85 1    
    44   22   23 am   BACKBONE|DICT|INTERRES
    45   22   86 1    
    46   23   24 2    
    47   23   25 1    
    48   25   26 1    
    49   25   27 1    
    50   25   87 1    
    51   26   88 1    
    52   26   89 1    
    53   26   90 1    
    54   27   28 am   BACKBONE|DICT|INTERRES
    55   27   91 1    
    56   28   29 2    
    57   28   30 1    
    58   30   31 1    
    59   30   32 1    
    60   30   92 1    
    61   31   93 1    
    62   31   94 1    
    63   31   95 1    
    64   32   33 am   BACKBONE|DICT|INTERRES
    65   32   96 1    
    66   33   34 2    
    67   33   35 1    
    68   35   36 1    
    69   35   37 1    
    70   35   97 1    
    71   36   98 1    
    72   36   99 1    
    73   36  100 1    
    74   37   38 am   BACKBONE|DICT|INTERRES
    75   37  101 1    
    76   38   39 2    
    77   38   40 1    
    78   40   41 1    
    79   40   42 1    
    80   40  102 1    
    81   41  103 1    
    82   41  104 1    
    83   41  105 1    
    84   42   43 am   BACKBONE|DICT|INTERRES
    85   42  106 1    
    86   43   44 2    
    87   43   45 1    
    88   45   46 1    
    89   45   49 1    
    90   45  107 1    
    91   46   47 1    
    92   46  108 1    
    93   46  109 1    
    94   47   48 1    
    95   48  110 1    
    96   48  111 1    
    97   49   50 am   BACKBONE|DICT|INTERRES
    98   49  112 1    
    99   50   51 2    
   100   50   52 1    
   101   52   53 1    
   102   52   54 1    
   103   52  113 1    
   104   53  114 1    
   105   53  115 1    
   106   53  116 1    
   107   54   55 am   BACKBONE|DICT|INTERRES
   108   54  117 1    
   109   55   56 2    
   110   55   57 1    
   111   57   58 1    
   112   57   59 1    
   113   57  118 1    
   114   58  119 1    
   115   58  120 1    
   116   58  121 1    
   117   59   60 am   BACKBONE|DICT|INTERRES
   118   59  122 1    
   119   60   61 2    
   120   60   62 1    
   121   62   63 1    
   122   62   64 1    
   123   62  123 1    
   124   63  124 1    
   125   63  125 1    
   126   63  126 1    
   127   64   65 am   BACKBONE|DICT|INTERRES
   128   64  127 1    
   129   65   66 2    
@<TRIPOS>SUBSTRUCTURE
     1 UNK         1 GROUP             0       ****    0 ROOT    
