@<TRIPOS>MOLECULE
3R135
127   129    1
SMALL
USER_CHARGES


@<TRIPOS>ATOM
      1 CA        -81.5281   29.9831  -76.0935 C.3       0 UNK        -0.1998 
      2 C         -81.9912   29.0706  -74.9676 C.2       0 UNK         0.4909 
      3 O         -83.1358   28.6171  -74.9847 O.2       0 UNK        -0.5240 
      4 N         -81.1040   28.8023  -73.9990 N.am      1 UNK        -0.4739 
      5 CA        -81.3167   27.9474  -72.8201 C.3       1 UNK         0.0864 
      6 C6        -82.3275   28.5259  -71.7905 C.3       11 UNK        -0.0881 
      7 S7        -81.9247   30.2160  -71.2294 S.3       11 UNK        -0.2682 
      8 C8        -80.9239   29.9016  -69.7392 C.3       11 UNK         0.0289 
      9 C9        -79.4673   29.6384  -70.0915 C.ar      11 UNK        -0.0687 
     10 C10       -78.9533   28.3385  -70.0889 C.ar      11 UNK        -0.0823 
     11 C11       -77.6225   28.1057  -70.4472 C.ar      11 UNK        -0.0830 
     12 C12       -76.7958   29.1873  -70.7628 C.ar      11 UNK        -0.1021 
     13 C13       -77.2910   30.4978  -70.7652 C.ar      11 UNK        -0.0753 
     14 C14       -78.6318   30.7075  -70.4288 C.ar      11 UNK        -0.0933 
     15 C15       -76.4442   31.7179  -71.1423 C.3       11 UNK         0.0166 
     16 S16       -74.6371   31.4618  -71.2307 S.3       11 UNK        -0.2615 
     17 C17       -74.4608   30.6599  -72.8623 C.3       11 UNK        -0.0865 
     18 CA        -73.1339   29.8710  -73.0025 C.3       10 UNK         0.0862 
     19 C         -73.0758   28.6135  -72.0993 C.2       10 UNK         0.5551 
     20 N         -72.1930   28.5909  -71.1107 N.am      10 UNK        -0.7319 
     21 O         -73.8418   27.6696  -72.2732 O.2       10 UNK        -0.5018 
     22 N         -72.9292   29.4575  -74.3905 N.am      10 UNK        -0.4509 
     23 C         -72.0815   30.0180  -75.2591 C.2       10 UNK         0.4899 
     24 O         -71.4183   31.0287  -75.0195 O.2       10 UNK        -0.4839 
     25 CA        -71.9544   29.3132  -76.6242 C.3       9 UNK         0.0222 
     26 CB        -70.7721   29.8285  -77.4720 C.3       9 UNK        -0.1966 
     27 N         -71.9126   27.8527  -76.4894 N.am      9 UNK        -0.4218 
     28 C         -71.0043   27.1128  -75.8337 C.2       9 UNK         0.5020 
     29 O         -69.9868   27.5724  -75.3132 O.2       9 UNK        -0.5274 
     30 CA        -71.2813   25.6021  -75.7048 C.3       8 UNK         0.0270 
     31 CB        -71.6967   25.2637  -74.2631 C.3       8 UNK        -0.1976 
     32 N         -72.3092   25.1067  -76.6255 N.am      8 UNK        -0.4313 
     33 C         -72.1435   24.9612  -77.9474 C.2       8 UNK         0.5041 
     34 O         -71.0768   25.1616  -78.5296 O.2       8 UNK        -0.5577 
     35 CA        -73.3831   24.5567  -78.7636 C.3       7 UNK         0.0284 
     36 CB        -73.5838   23.0334  -78.7246 C.3       7 UNK        -0.1958 
     37 N         -74.6088   25.2321  -78.3232 N.am      7 UNK        -0.4454 
     38 C         -74.8193   26.5554  -78.3921 C.2       7 UNK         0.5089 
     39 O         -74.0094   27.3541  -78.8617 O.2       7 UNK        -0.5125 
     40 CA        -76.1307   27.0891  -77.7898 C.3       6 UNK         0.0408 
     41 CB        -77.3138   26.8569  -78.7421 C.3       6 UNK        -0.1791 
     42 N         -76.4255   26.5057  -76.4804 N.am      6 UNK        -0.4762 
     43 C         -75.6656   26.6636  -75.3856 C.2       6 UNK         0.5007 
     44 O         -74.6588   27.3704  -75.3486 O.2       6 UNK        -0.5032 
     45 CA        -76.0835   25.8618  -74.1387 C.3       5 UNK         0.0783 
     46 C46       -77.1836   26.6232  -73.3581 C.3       11 UNK        -0.0857 
     47 S47       -77.7893   25.7289  -71.8851 S.3       11 UNK        -0.2512 
     48 C48       -77.0738   26.6860  -70.5077 C.3       11 UNK         0.0225 
     49 N         -76.4724   24.4940  -74.5014 N.am      5 UNK        -0.4615 
     50 C         -75.6345   23.5734  -74.9994 C.2       4 UNK         0.5053 
     51 O         -74.4355   23.7709  -75.1900 O.2       4 UNK        -0.5105 
     52 CA        -76.2437   22.2173  -75.3916 C.3       4 UNK         0.0263 
     53 CB        -76.4183   21.3242  -74.1531 C.3       4 UNK        -0.1981 
     54 N         -77.5265   22.3562  -76.0836 N.am      4 UNK        -0.4224 
     55 C         -77.6884   22.9418  -77.2798 C.2       3 UNK         0.4895 
     56 O         -76.7609   23.3677  -77.9660 O.2       3 UNK        -0.5091 
     57 CA        -79.1361   23.1383  -77.7645 C.3       3 UNK         0.0250 
     58 CB        -79.6249   21.8974  -78.5278 C.3       3 UNK        -0.1996 
     59 N         -80.0674   23.4490  -76.6735 N.am      3 UNK        -0.4254 
     60 C         -79.9664   24.5264  -75.8834 C.2       2 UNK         0.5004 
     61 O         -79.1075   25.4032  -76.0261 O.2       2 UNK        -0.5226 
     62 CA        -80.9362   24.6014  -74.6996 C.3       2 UNK         0.0269 
     63 CB        -80.5727   23.5396  -73.6392 C.3       2 UNK        -0.1926 
     64 N         -80.8433   25.9449  -74.1381 N.am      2 UNK        -0.4687 
     65 C         -81.6395   26.4876  -73.2120 C.2       1 UNK         0.5165 
     66 O         -82.5882   25.8933  -72.6952 O.2       1 UNK        -0.5079 
     67 H67       -82.1653   30.8655  -76.1466 H         1 UNK         0.0900 
     68 H68       -81.5880   29.4609  -77.0480 H         1 UNK         0.0900 
     69 H69       -80.4998   30.3161  -75.9535 H         1 UNK         0.0900 
     70 H70       -80.1895   29.2284  -74.0514 H         1 UNK         0.2959 
     71 H71       -80.3471   27.8911  -72.3278 H         1 UNK         0.1079 
     72 H72       -83.3294   28.5510  -72.2226 H         1 UNK         0.0837 
     73 H73       -82.3986   27.8757  -70.9168 H         1 UNK         0.0837 
     74 H74       -80.9814   30.7772  -69.0908 H         1 UNK         0.0685 
     75 H75       -81.3462   29.0749  -69.1661 H         1 UNK         0.0685 
     76 H76       -79.5937   27.5039  -69.8372 H         1 UNK         0.1434 
     77 H77       -75.7673   28.9896  -71.0191 H         1 UNK         0.1329 
     78 H78       -79.0345   31.7115  -70.4364 H         1 UNK         0.1335 
     79 H79       -76.6233   32.5032  -70.4062 H         1 UNK         0.0680 
     80 H80       -76.7935   32.1107  -72.0983 H         1 UNK         0.0680 
     81 H81       -74.4978   31.4489  -73.6151 H         1 UNK         0.1032 
     82 H82       -75.3167   30.0151  -73.0689 H         1 UNK         0.1032 
     83 H83       -72.3174   30.5333  -72.7066 H         1 UNK         0.0461 
     84 H84       -71.5716   29.3680  -70.9494 H         1 UNK         0.3453 
     85 H85       -72.1526   27.7827  -70.5105 H         1 UNK         0.3453 
     86 H86       -73.4395   28.6205  -74.6696 H         1 UNK         0.2984 
     87 H87       -72.8725   29.5378  -77.1689 H         1 UNK         0.0554 
     88 H88       -70.7216   29.3160  -78.4326 H         1 UNK         0.0847 
     89 H89       -69.8166   29.6885  -76.9657 H         1 UNK         0.0847 
     90 H90       -70.8760   30.8943  -77.6788 H         1 UNK         0.0847 
     91 H91       -72.7228   27.3688  -76.8557 H         1 UNK         0.3141 
     92 H92       -70.3475   25.0800  -75.9231 H         1 UNK         0.0743 
     93 H93       -72.6358   25.7481  -73.9924 H         1 UNK         0.0784 
     94 H94       -71.8233   24.1895  -74.1277 H         1 UNK         0.0784 
     95 H95       -70.9426   25.5942  -73.5476 H         1 UNK         0.0784 
     96 H96       -73.1982   24.8355  -76.2104 H         1 UNK         0.3213 
     97 H97       -73.2023   24.8480  -79.8005 H         1 UNK         0.0855 
     98 H98       -73.8060   22.6808  -77.7170 H         1 UNK         0.0814 
     99 H99       -72.6877   22.5120  -79.0637 H         1 UNK         0.0814 
    100 H100      -74.4031   22.7252  -79.3743 H         1 UNK         0.0814 
    101 H101      -75.3575   24.6363  -77.9762 H         1 UNK         0.3105 
    102 H102      -76.0184   28.1663  -77.6502 H         1 UNK         0.0547 
    103 H103      -77.1377   27.3376  -79.7051 H         1 UNK         0.0837 
    104 H104      -77.4793   25.7970  -78.9335 H         1 UNK         0.0837 
    105 H105      -78.2371   27.2704  -78.3360 H         1 UNK         0.0837 
    106 H106      -77.2683   25.9415  -76.4062 H         1 UNK         0.3020 
    107 H107      -75.2043   25.7874  -73.4952 H         1 UNK         0.1245 
    108 H108      -78.0442   26.8183  -73.9984 H         1 UNK         0.0781 
    109 H109      -76.8100   27.6037  -73.0607 H         1 UNK         0.0781 
    110 H110      -75.9866   26.6892  -70.6045 H         1 UNK         0.0836 
    111 H111      -77.2953   26.1755  -69.5695 H         1 UNK         0.0836 
    112 H112      -77.4500   24.2694  -74.4007 H         1 UNK         0.3022 
    113 H113      -75.5469   21.7248  -76.0732 H         1 UNK         0.0747 
    114 H114      -76.7735   20.3306  -74.4274 H         1 UNK         0.0793 
    115 H115      -75.4693   21.1941  -73.6309 H         1 UNK         0.0793 
    116 H116      -77.1262   21.7499  -73.4405 H         1 UNK         0.0793 
    117 H117      -78.3468   22.0252  -75.5983 H         1 UNK         0.3047 
    118 H118      -79.1388   23.9858  -78.4530 H         1 UNK         0.0822 
    119 H119      -80.6161   22.0577  -78.9527 H         1 UNK         0.0807 
    120 H120      -79.6723   21.0172  -77.8854 H         1 UNK         0.0807 
    121 H121      -78.9547   21.6609  -79.3557 H         1 UNK         0.0807 
    122 H122      -80.8006   22.7768  -76.4967 H         1 UNK         0.2946 
    123 H123      -81.9528   24.4397  -75.0644 H         1 UNK         0.1144 
    124 H124      -79.5593   23.6765  -73.2614 H         1 UNK         0.0793 
    125 H125      -80.6353   22.5308  -74.0483 H         1 UNK         0.0793 
    126 H126      -81.2496   23.5725  -72.7859 H         1 UNK         0.0793 
    127 H127      -80.1138   26.5049  -74.5624 H         1 UNK         0.2896 
@<TRIPOS>BOND
     1    1    2 1    
     2    1   67 1    
     3    1   68 1    
     4    1   69 1    
     5    2    3 2    
     6    2    4 am   BACKBONE|DICT|INTERRES
     7    4    5 1    
     8    4   70 1    
     9    5    6 1    
    10    5   65 1    
    11    5   71 1    
    12    6    7 1    
    13    6   72 1    
    14    6   73 1    
    15    7    8 1    
    16    8    9 1    
    17    8   74 1    
    18    8   75 1    
    19    9   10 ar   
    20    9   14 ar   
    21   10   11 ar   
    22   10   76 1    
    23   11   12 ar   
    24   11   48 1    
    25   12   13 ar   
    26   12   77 1    
    27   13   14 ar   
    28   13   15 1    
    29   14   78 1    
    30   15   16 1    
    31   15   79 1    
    32   15   80 1    
    33   16   17 1    
    34   17   18 1    
    35   17   81 1    
    36   17   82 1    
    37   18   19 1    
    38   18   22 1    
    39   18   83 1    
    40   19   20 am   BACKBONE|DICT|INTERRES
    41   19   21 2    
    42   20   84 1    
    43   20   85 1    
    44   22   23 am   BACKBONE|DICT|INTERRES
    45   22   86 1    
    46   23   24 2    
    47   23   25 1    
    48   25   26 1    
    49   25   27 1    
    50   25   87 1    
    51   26   88 1    
    52   26   89 1    
    53   26   90 1    
    54   27   28 am   BACKBONE|DICT|INTERRES
    55   27   91 1    
    56   28   29 2    
    57   28   30 1    
    58   30   31 1    
    59   30   32 1    
    60   30   92 1    
    61   31   93 1    
    62   31   94 1    
    63   31   95 1    
    64   32   33 am   BACKBONE|DICT|INTERRES
    65   32   96 1    
    66   33   34 2    
    67   33   35 1    
    68   35   36 1    
    69   35   37 1    
    70   35   97 1    
    71   36   98 1    
    72   36   99 1    
    73   36  100 1    
    74   37   38 am   BACKBONE|DICT|INTERRES
    75   37  101 1    
    76   38   39 2    
    77   38   40 1    
    78   40   41 1    
    79   40   42 1    
    80   40  102 1    
    81   41  103 1    
    82   41  104 1    
    83   41  105 1    
    84   42   43 am   BACKBONE|DICT|INTERRES
    85   42  106 1    
    86   43   44 2    
    87   43   45 1    
    88   45   46 1    
    89   45   49 1    
    90   45  107 1    
    91   46   47 1    
    92   46  108 1    
    93   46  109 1    
    94   47   48 1    
    95   48  110 1    
    96   48  111 1    
    97   49   50 am   BACKBONE|DICT|INTERRES
    98   49  112 1    
    99   50   51 2    
   100   50   52 1    
   101   52   53 1    
   102   52   54 1    
   103   52  113 1    
   104   53  114 1    
   105   53  115 1    
   106   53  116 1    
   107   54   55 am   BACKBONE|DICT|INTERRES
   108   54  117 1    
   109   55   56 2    
   110   55   57 1    
   111   57   58 1    
   112   57   59 1    
   113   57  118 1    
   114   58  119 1    
   115   58  120 1    
   116   58  121 1    
   117   59   60 am   BACKBONE|DICT|INTERRES
   118   59  122 1    
   119   60   61 2    
   120   60   62 1    
   121   62   63 1    
   122   62   64 1    
   123   62  123 1    
   124   63  124 1    
   125   63  125 1    
   126   63  126 1    
   127   64   65 am   BACKBONE|DICT|INTERRES
   128   64  127 1    
   129   65   66 2    
@<TRIPOS>SUBSTRUCTURE
     1 UNK         1 GROUP             0       ****    0 ROOT    
