@<TRIPOS>MOLECULE
3R135
127   129    1
SMALL
USER_CHARGES


@<TRIPOS>ATOM
      1 CA        -83.2746   27.4174  -70.4371 C.3       0 UNK        -0.1998 
      2 C         -83.4266   27.5564  -71.9444 C.2       0 UNK         0.4909 
      3 O         -84.4326   27.1187  -72.5032 O.2       0 UNK        -0.5240 
      4 N         -82.4324   28.1625  -72.6061 N.am      1 UNK        -0.4739 
      5 CA        -82.3798   28.3517  -74.0625 C.3       1 UNK         0.0864 
      6 C6        -81.4229   29.5068  -74.4597 C.3       11 UNK        -0.0881 
      7 S7        -79.6912   29.2610  -73.9363 S.3       11 UNK        -0.2682 
      8 C8        -79.6417   30.1799  -72.3614 C.3       11 UNK         0.0289 
      9 C9        -78.4392   29.7513  -71.5359 C.ar      11 UNK        -0.0687 
     10 C10       -78.3420   28.4297  -71.0921 C.ar      11 UNK        -0.0823 
     11 C11       -77.1883   27.9774  -70.4450 C.ar      11 UNK        -0.0830 
     12 C12       -76.1700   28.8893  -70.1521 C.ar      11 UNK        -0.1021 
     13 C13       -76.2748   30.2260  -70.5488 C.ar      11 UNK        -0.0753 
     14 C14       -77.4072   30.6502  -71.2516 C.ar      11 UNK        -0.0933 
     15 C15       -75.1570   31.2059  -70.2231 C.3       11 UNK         0.0166 
     16 S16       -73.6252   30.8358  -71.1361 S.3       11 UNK        -0.2615 
     17 C17       -74.0879   31.2470  -72.8564 C.3       11 UNK        -0.0865 
     18 CA        -73.9646   30.0415  -73.8376 C.3       10 UNK         0.0862 
     19 C         -74.4397   30.4041  -75.2792 C.2       10 UNK         0.5551 
     20 N         -73.8028   29.9131  -76.3363 N.am      10 UNK        -0.7319 
     21 O         -75.4169   31.1297  -75.4454 O.2       10 UNK        -0.5018 
     22 N         -72.6513   29.3722  -73.7912 N.am      10 UNK        -0.4509 
     23 C         -71.4631   29.9354  -74.0532 C.2       10 UNK         0.4899 
     24 O         -71.2999   31.1308  -74.2991 O.2       10 UNK        -0.4839 
     25 CA        -70.2354   29.0048  -74.0622 C.3       9 UNK         0.0222 
     26 CB        -69.5335   29.0386  -72.6947 C.3       9 UNK        -0.1966 
     27 N         -70.5230   27.6112  -74.4245 N.am      9 UNK        -0.4218 
     28 C         -71.0590   27.2007  -75.5833 C.2       9 UNK         0.5020 
     29 O         -71.4001   27.9736  -76.4826 O.2       9 UNK        -0.5274 
     30 CA        -71.2307   25.6812  -75.7667 C.3       8 UNK         0.0270 
     31 CB        -71.5163   24.9375  -74.4452 C.3       8 UNK        -0.1976 
     32 N         -72.3330   25.4241  -76.6901 N.am      8 UNK        -0.4313 
     33 C         -72.2182   24.9675  -77.9430 C.2       8 UNK         0.5041 
     34 O         -71.1425   24.6628  -78.4622 O.2       8 UNK        -0.5577 
     35 CA        -73.5120   24.7899  -78.7634 C.3       7 UNK         0.0284 
     36 CB        -73.8102   23.2954  -78.9710 C.3       7 UNK        -0.1958 
     37 N         -74.6858   25.4235  -78.1578 N.am      7 UNK        -0.4454 
     38 C         -74.9385   26.7390  -78.1607 C.2       7 UNK         0.5089 
     39 O         -74.2563   27.5661  -78.7649 O.2       7 UNK        -0.5125 
     40 CA        -76.1441   27.2144  -77.3287 C.3       6 UNK         0.0408 
     41 CB        -77.4187   27.2280  -78.1849 C.3       6 UNK        -0.1791 
     42 N         -76.3775   26.4219  -76.1163 N.am      6 UNK        -0.4762 
     43 C         -75.5120   26.2953  -75.0975 C.2       6 UNK         0.5007 
     44 O         -74.3947   26.8093  -75.0754 O.2       6 UNK        -0.5032 
     45 CA        -75.9649   25.4329  -73.9082 C.3       5 UNK         0.0783 
     46 C46       -76.9145   26.2525  -73.0102 C.3       11 UNK        -0.0857 
     47 S47       -77.4703   25.3710  -71.5064 S.3       11 UNK        -0.2512 
     48 C48       -76.9931   26.4942  -70.1356 C.3       11 UNK         0.0225 
     49 N         -76.5577   24.1845  -74.3884 N.am      5 UNK        -0.4615 
     50 C         -75.8420   23.1421  -74.8320 C.2       4 UNK         0.5053 
     51 O         -74.6129   23.0930  -74.7996 O.2       4 UNK        -0.5105 
     52 CA        -76.6229   21.9607  -75.4340 C.3       4 UNK         0.0263 
     53 CB        -76.9841   20.9431  -74.3402 C.3       4 UNK        -0.1981 
     54 N         -77.8406   22.3704  -76.1378 N.am      4 UNK        -0.4224 
     55 C         -77.8672   23.1341  -77.2400 C.2       3 UNK         0.4895 
     56 O         -76.8606   23.5427  -77.8161 O.2       3 UNK        -0.5091 
     57 CA        -79.2534   23.5545  -77.7577 C.3       3 UNK         0.0250 
     58 CB        -79.8011   22.5075  -78.7404 C.3       3 UNK        -0.1996 
     59 N         -80.2306   23.7859  -76.6883 N.am      3 UNK        -0.4254 
     60 C         -80.1030   24.7033  -75.7191 C.2       2 UNK         0.5004 
     61 O         -79.1299   25.4532  -75.6045 O.2       2 UNK        -0.5226 
     62 CA        -81.2087   24.7130  -74.6535 C.3       2 UNK         0.0269 
     63 CB        -80.8127   23.8063  -73.4763 C.3       2 UNK        -0.1926 
     64 N         -81.4866   26.0539  -74.1408 N.am      2 UNK        -0.4687 
     65 C         -82.0845   27.0392  -74.8273 C.2       1 UNK         0.5165 
     66 O         -82.4436   26.9302  -76.0012 O.2       1 UNK        -0.5079 
     67 H67       -82.3412   27.8510  -70.0784 H         1 UNK         0.0900 
     68 H68       -83.2902   26.3651  -70.1544 H         1 UNK         0.0900 
     69 H69       -84.0982   27.9189  -69.9295 H         1 UNK         0.0900 
     70 H70       -81.6286   28.4995  -72.0984 H         1 UNK         0.2959 
     71 H71       -83.3807   28.6527  -74.3812 H         1 UNK         0.1079 
     72 H72       -81.7893   30.4477  -74.0458 H         1 UNK         0.0837 
     73 H73       -81.4326   29.6462  -75.5424 H         1 UNK         0.0837 
     74 H74       -79.6118   31.2496  -72.5747 H         1 UNK         0.0685 
     75 H75       -80.5485   30.0040  -71.7832 H         1 UNK         0.0685 
     76 H76       -79.1311   27.7296  -71.3285 H         1 UNK         0.1434 
     77 H77       -75.2752   28.5563  -69.6436 H         1 UNK         0.1329 
     78 H78       -77.4802   31.6758  -71.5868 H         1 UNK         0.1335 
     79 H79       -74.9464   31.1594  -69.1537 H         1 UNK         0.0680 
     80 H80       -75.4614   32.2333  -70.4291 H         1 UNK         0.0680 
     81 H81       -73.4634   32.0775  -73.1882 H         1 UNK         0.1032 
     82 H82       -75.1089   31.6313  -72.8662 H         1 UNK         0.1032 
     83 H83       -74.6750   29.2862  -73.4990 H         1 UNK         0.0461 
     84 H84       -73.0190   29.2804  -76.2232 H         1 UNK         0.3453 
     85 H85       -74.1257   30.1433  -77.2616 H         1 UNK         0.3453 
     86 H86       -72.6846   28.3737  -73.6477 H         1 UNK         0.2984 
     87 H87       -69.5414   29.3947  -74.8096 H         1 UNK         0.0554 
     88 H88       -68.6041   28.4690  -72.7078 H         1 UNK         0.0847 
     89 H89       -70.1679   28.6337  -71.9050 H         1 UNK         0.0847 
     90 H90       -69.2790   30.0615  -72.4126 H         1 UNK         0.0847 
     91 H91       -70.2751   26.9093  -73.7422 H         1 UNK         0.3141 
     92 H92       -70.2940   25.3002  -76.1778 H         1 UNK         0.0743 
     93 H93       -71.7416   23.8865  -74.6294 H         1 UNK         0.0784 
     94 H94       -70.6566   24.9601  -73.7749 H         1 UNK         0.0784 
     95 H95       -72.3680   25.3637  -73.9136 H         1 UNK         0.0784 
     96 H96       -73.2405   25.7464  -76.3709 H         1 UNK         0.3213 
     97 H97       -73.3408   25.2444  -79.7416 H         1 UNK         0.0855 
     98 H98       -74.0044   22.7901  -78.0236 H         1 UNK         0.0814 
     99 H99       -72.9698   22.7884  -79.4468 H         1 UNK         0.0814 
    100 H100      -74.6802   23.1499  -79.6117 H         1 UNK         0.0814 
    101 H101      -75.3638   24.8039  -77.7217 H         1 UNK         0.3105 
    102 H102      -75.9452   28.2381  -77.0087 H         1 UNK         0.0547 
    103 H103      -77.6412   26.2398  -78.5857 H         1 UNK         0.0837 
    104 H104      -78.2832   27.5631  -77.6109 H         1 UNK         0.0837 
    105 H105      -77.3085   27.9044  -79.0333 H         1 UNK         0.0837 
    106 H106      -77.2942   25.9904  -76.0247 H         1 UNK         0.3020 
    107 H107      -75.0750   25.1914  -73.3218 H         1 UNK         0.1245 
    108 H108      -76.4077   27.1768  -72.7322 H         1 UNK         0.0781 
    109 H109      -77.8067   26.5584  -73.5602 H         1 UNK         0.0781 
    110 H110      -77.5731   26.2367  -69.2486 H         1 UNK         0.0836 
    111 H111      -75.9492   26.2949  -69.8887 H         1 UNK         0.0836 
    112 H112      -77.5632   24.1761  -74.4851 H         1 UNK         0.3022 
    113 H113      -75.9690   21.4702  -76.1584 H         1 UNK         0.0747 
    114 H114      -77.4654   20.0604  -74.7616 H         1 UNK         0.0793 
    115 H115      -76.0904   20.6028  -73.8150 H         1 UNK         0.0793 
    116 H116      -77.6563   21.3710  -73.5951 H         1 UNK         0.0793 
    117 H117      -78.7197   22.0759  -75.7394 H         1 UNK         0.3047 
    118 H118      -79.1328   24.4944  -78.2979 H         1 UNK         0.0822 
    119 H119      -80.7394   22.8355  -79.1882 H         1 UNK         0.0807 
    120 H120      -79.9773   21.5470  -78.2545 H         1 UNK         0.0807 
    121 H121      -79.0983   22.3353  -79.5571 H         1 UNK         0.0807 
    122 H122      -81.0540   23.2007  -76.7000 H         1 UNK         0.2946 
    123 H123      -82.1296   24.3297  -75.0991 H         1 UNK         0.1144 
    124 H124      -81.6008   23.7656  -72.7240 H         1 UNK         0.0793 
    125 H125      -79.9017   24.1545  -72.9879 H         1 UNK         0.0793 
    126 H126      -80.6336   22.7830  -73.8088 H         1 UNK         0.0793 
    127 H127      -81.1996   26.2471  -73.1936 H         1 UNK         0.2896 
@<TRIPOS>BOND
     1    1    2 1    
     2    1   67 1    
     3    1   68 1    
     4    1   69 1    
     5    2    3 2    
     6    2    4 am   BACKBONE|DICT|INTERRES
     7    4    5 1    
     8    4   70 1    
     9    5    6 1    
    10    5   65 1    
    11    5   71 1    
    12    6    7 1    
    13    6   72 1    
    14    6   73 1    
    15    7    8 1    
    16    8    9 1    
    17    8   74 1    
    18    8   75 1    
    19    9   10 ar   
    20    9   14 ar   
    21   10   11 ar   
    22   10   76 1    
    23   11   12 ar   
    24   11   48 1    
    25   12   13 ar   
    26   12   77 1    
    27   13   14 ar   
    28   13   15 1    
    29   14   78 1    
    30   15   16 1    
    31   15   79 1    
    32   15   80 1    
    33   16   17 1    
    34   17   18 1    
    35   17   81 1    
    36   17   82 1    
    37   18   19 1    
    38   18   22 1    
    39   18   83 1    
    40   19   20 am   BACKBONE|DICT|INTERRES
    41   19   21 2    
    42   20   84 1    
    43   20   85 1    
    44   22   23 am   BACKBONE|DICT|INTERRES
    45   22   86 1    
    46   23   24 2    
    47   23   25 1    
    48   25   26 1    
    49   25   27 1    
    50   25   87 1    
    51   26   88 1    
    52   26   89 1    
    53   26   90 1    
    54   27   28 am   BACKBONE|DICT|INTERRES
    55   27   91 1    
    56   28   29 2    
    57   28   30 1    
    58   30   31 1    
    59   30   32 1    
    60   30   92 1    
    61   31   93 1    
    62   31   94 1    
    63   31   95 1    
    64   32   33 am   BACKBONE|DICT|INTERRES
    65   32   96 1    
    66   33   34 2    
    67   33   35 1    
    68   35   36 1    
    69   35   37 1    
    70   35   97 1    
    71   36   98 1    
    72   36   99 1    
    73   36  100 1    
    74   37   38 am   BACKBONE|DICT|INTERRES
    75   37  101 1    
    76   38   39 2    
    77   38   40 1    
    78   40   41 1    
    79   40   42 1    
    80   40  102 1    
    81   41  103 1    
    82   41  104 1    
    83   41  105 1    
    84   42   43 am   BACKBONE|DICT|INTERRES
    85   42  106 1    
    86   43   44 2    
    87   43   45 1    
    88   45   46 1    
    89   45   49 1    
    90   45  107 1    
    91   46   47 1    
    92   46  108 1    
    93   46  109 1    
    94   47   48 1    
    95   48  110 1    
    96   48  111 1    
    97   49   50 am   BACKBONE|DICT|INTERRES
    98   49  112 1    
    99   50   51 2    
   100   50   52 1    
   101   52   53 1    
   102   52   54 1    
   103   52  113 1    
   104   53  114 1    
   105   53  115 1    
   106   53  116 1    
   107   54   55 am   BACKBONE|DICT|INTERRES
   108   54  117 1    
   109   55   56 2    
   110   55   57 1    
   111   57   58 1    
   112   57   59 1    
   113   57  118 1    
   114   58  119 1    
   115   58  120 1    
   116   58  121 1    
   117   59   60 am   BACKBONE|DICT|INTERRES
   118   59  122 1    
   119   60   61 2    
   120   60   62 1    
   121   62   63 1    
   122   62   64 1    
   123   62  123 1    
   124   63  124 1    
   125   63  125 1    
   126   63  126 1    
   127   64   65 am   BACKBONE|DICT|INTERRES
   128   64  127 1    
   129   65   66 2    
@<TRIPOS>SUBSTRUCTURE
     1 UNK         1 GROUP             0       ****    0 ROOT    
