@<TRIPOS>MOLECULE
3R135
127   129    1
SMALL
USER_CHARGES


@<TRIPOS>ATOM
      1 CA        -75.3131   26.2692  -69.9309 C.3       0 UNK        -0.1998 
      2 C         -76.6224   25.4953  -69.9090 C.2       0 UNK         0.4909 
      3 O         -76.6869   24.4205  -69.3120 O.2       0 UNK        -0.5240 
      4 N         -77.6682   26.0377  -70.5484 N.am      1 UNK        -0.4739 
      5 CA        -79.0144   25.4485  -70.6134 C.3       1 UNK         0.0864 
      6 C6        -80.0534   26.4512  -71.1742 C.3       11 UNK        -0.0881 
      7 S7        -80.2636   27.8933  -70.0807 S.3       11 UNK        -0.2682 
      8 C8        -80.9645   29.1253  -71.2308 C.3       11 UNK         0.0289 
      9 C9        -79.9445   29.7456  -72.1837 C.ar      11 UNK        -0.0687 
     10 C10       -80.3036   30.0111  -73.5096 C.ar      11 UNK        -0.0823 
     11 C11       -79.4092   30.6424  -74.3813 C.ar      11 UNK        -0.0830 
     12 C12       -78.1324   30.9867  -73.9262 C.ar      11 UNK        -0.1021 
     13 C13       -77.7637   30.7364  -72.6008 C.ar      11 UNK        -0.0753 
     14 C14       -78.6742   30.1239  -71.7356 C.ar      11 UNK        -0.0933 
     15 C15       -76.3974   31.1558  -72.0832 C.3       11 UNK         0.0166 
     16 S16       -75.3143   29.7151  -71.8754 S.3       11 UNK        -0.2615 
     17 C17       -73.8075   30.4984  -71.2059 C.3       11 UNK        -0.0865 
     18 CA        -72.7884   30.8901  -72.3077 C.3       10 UNK         0.0862 
     19 C         -71.5380   31.5833  -71.6926 C.2       10 UNK         0.5551 
     20 N         -70.3353   31.0408  -71.8388 N.am      10 UNK        -0.7319 
     21 O         -71.6640   32.6378  -71.0749 O.2       10 UNK        -0.5018 
     22 N         -72.4955   29.7552  -73.1957 N.am      10 UNK        -0.4509 
     23 C         -72.0297   29.8402  -74.4443 C.2       10 UNK         0.4899 
     24 O         -71.7174   30.9000  -74.9878 O.2       10 UNK        -0.4839 
     25 CA        -71.9139   28.5292  -75.2408 C.3       9 UNK         0.0222 
     26 CB        -70.5500   27.8509  -75.0104 C.3       9 UNK        -0.1966 
     27 N         -73.0285   27.5913  -75.0416 N.am      9 UNK        -0.4218 
     28 C         -73.3575   26.8639  -73.9625 C.2       9 UNK         0.5020 
     29 O         -72.7686   26.9224  -72.8823 O.2       9 UNK        -0.5274 
     30 CA        -74.5548   25.9077  -74.1165 C.3       8 UNK         0.0270 
     31 CB        -75.8716   26.6347  -73.7956 C.3       8 UNK        -0.1976 
     32 N         -74.6365   25.3180  -75.4557 N.am      8 UNK        -0.4313 
     33 C         -73.7390   24.4684  -75.9786 C.2       8 UNK         0.5041 
     34 O         -72.7734   24.0192  -75.3605 O.2       8 UNK        -0.5577 
     35 CA        -73.9412   24.0703  -77.4494 C.3       7 UNK         0.0284 
     36 CB        -74.8891   22.8647  -77.5706 C.3       7 UNK        -0.1958 
     37 N         -74.4503   25.1914  -78.2435 N.am      7 UNK        -0.4454 
     38 C         -73.6919   26.2043  -78.6895 C.2       7 UNK         0.5089 
     39 O         -72.4692   26.2551  -78.5577 O.2       7 UNK        -0.5125 
     40 CA        -74.4193   27.3704  -79.3848 C.3       6 UNK         0.0408 
     41 CB        -74.5105   27.1194  -80.8982 C.3       6 UNK        -0.1791 
     42 N         -75.7621   27.6144  -78.8504 N.am      6 UNK        -0.4762 
     43 C         -76.0236   28.0662  -77.6139 C.2       6 UNK         0.5007 
     44 O         -75.1490   28.3826  -76.8091 O.2       6 UNK        -0.5032 
     45 CA        -77.5061   28.1070  -77.1851 C.3       5 UNK         0.0783 
     46 C46       -78.1168   29.5031  -77.4488 C.3       11 UNK        -0.0857 
     47 S47       -79.8643   29.6025  -76.9279 S.3       11 UNK        -0.2512 
     48 C48       -79.8567   31.0198  -75.7873 C.3       11 UNK         0.0225 
     49 N         -78.2875   27.0277  -77.8058 N.am      5 UNK        -0.4615 
     50 C         -78.0899   25.7259  -77.5753 C.2       4 UNK         0.5053 
     51 O         -77.2002   25.2896  -76.8398 O.2       4 UNK        -0.5105 
     52 CA        -78.9842   24.7479  -78.3383 C.3       4 UNK         0.0263 
     53 CB        -78.3287   24.3319  -79.6662 C.3       4 UNK        -0.1981 
     54 N         -79.1779   23.5751  -77.4966 N.am      4 UNK        -0.4224 
     55 C         -80.3068   22.8654  -77.3950 C.2       3 UNK         0.4895 
     56 O         -81.2943   23.0468  -78.1090 O.2       3 UNK        -0.5091 
     57 CA        -80.3599   21.7674  -76.3124 C.3       3 UNK         0.0250 
     58 CB        -80.2096   20.3781  -76.9545 C.3       3 UNK        -0.1996 
     59 N         -79.3667   21.9052  -75.2381 N.am      3 UNK        -0.4254 
     60 C         -79.2900   22.9295  -74.3762 C.2       2 UNK         0.5004 
     61 O         -80.0503   23.9007  -74.4033 O.2       2 UNK        -0.5226 
     62 CA        -78.1473   22.8567  -73.3432 C.3       2 UNK         0.0269 
     63 CB        -76.7747   22.8360  -74.0390 C.3       2 UNK        -0.1926 
     64 N         -78.1788   23.9825  -72.4063 N.am      2 UNK        -0.4687 
     65 C         -79.0656   24.1280  -71.4120 C.2       1 UNK         0.5165 
     66 O         -79.9004   23.2722  -71.1119 O.2       1 UNK        -0.5079 
     67 H67       -74.8331   26.2280  -68.9535 H         1 UNK         0.0900 
     68 H68       -75.4703   27.3176  -70.1793 H         1 UNK         0.0900 
     69 H69       -74.6307   25.8403  -70.6644 H         1 UNK         0.0900 
     70 H70       -77.5700   26.9423  -70.9873 H         1 UNK         0.2959 
     71 H71       -79.3066   25.1957  -69.5914 H         1 UNK         0.1079 
     72 H72       -79.7618   26.7872  -72.1717 H         1 UNK         0.0837 
     73 H73       -81.0317   25.9782  -71.2836 H         1 UNK         0.0837 
     74 H74       -81.7810   28.6607  -71.7862 H         1 UNK         0.0685 
     75 H75       -81.4109   29.9283  -70.6431 H         1 UNK         0.0685 
     76 H76       -81.2940   29.7537  -73.8603 H         1 UNK         0.1434 
     77 H77       -77.4370   31.4781  -74.5929 H         1 UNK         0.1329 
     78 H78       -78.3906   29.9497  -70.7067 H         1 UNK         0.1335 
     79 H79       -76.5121   31.6685  -71.1269 H         1 UNK         0.0680 
     80 H80       -75.9262   31.8655  -72.7650 H         1 UNK         0.0680 
     81 H81       -73.3509   29.7958  -70.5063 H         1 UNK         0.1032 
     82 H82       -74.0904   31.3699  -70.6124 H         1 UNK         0.1032 
     83 H83       -73.2674   31.6534  -72.9241 H         1 UNK         0.0461 
     84 H84       -69.5313   31.4994  -71.4398 H         1 UNK         0.3453 
     85 H85       -70.2277   30.1784  -72.3478 H         1 UNK         0.3453 
     86 H86       -72.7026   28.8287  -72.8337 H         1 UNK         0.2984 
     87 H87       -71.9643   28.8038  -76.2958 H         1 UNK         0.0554 
     88 H88       -70.4434   26.9605  -75.6304 H         1 UNK         0.0847 
     89 H89       -70.4097   27.5540  -73.9707 H         1 UNK         0.0847 
     90 H90       -69.7324   28.5254  -75.2676 H         1 UNK         0.0847 
     91 H91       -73.6856   27.5640  -75.8165 H         1 UNK         0.3141 
     92 H92       -74.4283   25.0907  -73.4032 H         1 UNK         0.0743 
     93 H93       -75.9689   27.5623  -74.3593 H         1 UNK         0.0784 
     94 H94       -76.7442   26.0200  -74.0132 H         1 UNK         0.0784 
     95 H95       -75.9126   26.9033  -72.7415 H         1 UNK         0.0784 
     96 H96       -75.4491   25.5571  -76.0159 H         1 UNK         0.3213 
     97 H97       -72.9690   23.7730  -77.8493 H         1 UNK         0.0855 
     98 H98       -75.8813   23.0774  -77.1748 H         1 UNK         0.0814 
     99 H99       -74.4984   22.0096  -77.0174 H         1 UNK         0.0814 
    100 H100      -75.0024   22.5528  -78.6089 H         1 UNK         0.0814 
    101 H101      -75.4522   25.2516  -78.3552 H         1 UNK         0.3105 
    102 H102      -73.8250   28.2727  -79.2245 H         1 UNK         0.0547 
    103 H103      -73.5200   26.9588  -81.3264 H         1 UNK         0.0837 
    104 H104      -75.1109   26.2383  -81.1284 H         1 UNK         0.0837 
    105 H105      -74.9501   27.9716  -81.4167 H         1 UNK         0.0837 
    106 H106      -76.5422   27.3844  -79.4491 H         1 UNK         0.3020 
    107 H107      -77.5274   27.9375  -76.1064 H         1 UNK         0.1245 
    108 H108      -77.5388   30.2700  -76.9296 H         1 UNK         0.0781 
    109 H109      -78.0675   29.7521  -78.5106 H         1 UNK         0.0781 
    110 H110      -79.2371   31.8206  -76.1943 H         1 UNK         0.0836 
    111 H111      -80.8680   31.4264  -75.7387 H         1 UNK         0.0836 
    112 H112      -79.0422   27.3174  -78.4113 H         1 UNK         0.3022 
    113 H113      -79.9442   25.2306  -78.5342 H         1 UNK         0.0747 
    114 H114      -78.9616   23.6344  -80.2152 H         1 UNK         0.0793 
    115 H115      -78.1639   25.1951  -80.3121 H         1 UNK         0.0793 
    116 H116      -77.3632   23.8497  -79.5075 H         1 UNK         0.0793 
    117 H117      -78.4329   23.4103  -76.8329 H         1 UNK         0.3047 
    118 H118      -81.3483   21.8257  -75.8516 H         1 UNK         0.0822 
    119 H119      -80.3469   19.5831  -76.2213 H         1 UNK         0.0807 
    120 H120      -79.2280   20.2495  -77.4126 H         1 UNK         0.0807 
    121 H121      -80.9555   20.2253  -77.7360 H         1 UNK         0.0807 
    122 H122      -78.7018   21.1499  -75.1502 H         1 UNK         0.2946 
    123 H123      -78.2679   21.9328  -72.7725 H         1 UNK         0.1144 
    124 H124      -76.6322   21.9226  -74.6172 H         1 UNK         0.0793 
    125 H125      -75.9579   22.8855  -73.3185 H         1 UNK         0.0793 
    126 H126      -76.6679   23.6730  -74.7267 H         1 UNK         0.0793 
    127 H127      -77.5419   24.7432  -72.5844 H         1 UNK         0.2896 
@<TRIPOS>BOND
     1    1    2 1    
     2    1   67 1    
     3    1   68 1    
     4    1   69 1    
     5    2    3 2    
     6    2    4 am   BACKBONE|DICT|INTERRES
     7    4    5 1    
     8    4   70 1    
     9    5    6 1    
    10    5   65 1    
    11    5   71 1    
    12    6    7 1    
    13    6   72 1    
    14    6   73 1    
    15    7    8 1    
    16    8    9 1    
    17    8   74 1    
    18    8   75 1    
    19    9   10 ar   
    20    9   14 ar   
    21   10   11 ar   
    22   10   76 1    
    23   11   12 ar   
    24   11   48 1    
    25   12   13 ar   
    26   12   77 1    
    27   13   14 ar   
    28   13   15 1    
    29   14   78 1    
    30   15   16 1    
    31   15   79 1    
    32   15   80 1    
    33   16   17 1    
    34   17   18 1    
    35   17   81 1    
    36   17   82 1    
    37   18   19 1    
    38   18   22 1    
    39   18   83 1    
    40   19   20 am   BACKBONE|DICT|INTERRES
    41   19   21 2    
    42   20   84 1    
    43   20   85 1    
    44   22   23 am   BACKBONE|DICT|INTERRES
    45   22   86 1    
    46   23   24 2    
    47   23   25 1    
    48   25   26 1    
    49   25   27 1    
    50   25   87 1    
    51   26   88 1    
    52   26   89 1    
    53   26   90 1    
    54   27   28 am   BACKBONE|DICT|INTERRES
    55   27   91 1    
    56   28   29 2    
    57   28   30 1    
    58   30   31 1    
    59   30   32 1    
    60   30   92 1    
    61   31   93 1    
    62   31   94 1    
    63   31   95 1    
    64   32   33 am   BACKBONE|DICT|INTERRES
    65   32   96 1    
    66   33   34 2    
    67   33   35 1    
    68   35   36 1    
    69   35   37 1    
    70   35   97 1    
    71   36   98 1    
    72   36   99 1    
    73   36  100 1    
    74   37   38 am   BACKBONE|DICT|INTERRES
    75   37  101 1    
    76   38   39 2    
    77   38   40 1    
    78   40   41 1    
    79   40   42 1    
    80   40  102 1    
    81   41  103 1    
    82   41  104 1    
    83   41  105 1    
    84   42   43 am   BACKBONE|DICT|INTERRES
    85   42  106 1    
    86   43   44 2    
    87   43   45 1    
    88   45   46 1    
    89   45   49 1    
    90   45  107 1    
    91   46   47 1    
    92   46  108 1    
    93   46  109 1    
    94   47   48 1    
    95   48  110 1    
    96   48  111 1    
    97   49   50 am   BACKBONE|DICT|INTERRES
    98   49  112 1    
    99   50   51 2    
   100   50   52 1    
   101   52   53 1    
   102   52   54 1    
   103   52  113 1    
   104   53  114 1    
   105   53  115 1    
   106   53  116 1    
   107   54   55 am   BACKBONE|DICT|INTERRES
   108   54  117 1    
   109   55   56 2    
   110   55   57 1    
   111   57   58 1    
   112   57   59 1    
   113   57  118 1    
   114   58  119 1    
   115   58  120 1    
   116   58  121 1    
   117   59   60 am   BACKBONE|DICT|INTERRES
   118   59  122 1    
   119   60   61 2    
   120   60   62 1    
   121   62   63 1    
   122   62   64 1    
   123   62  123 1    
   124   63  124 1    
   125   63  125 1    
   126   63  126 1    
   127   64   65 am   BACKBONE|DICT|INTERRES
   128   64  127 1    
   129   65   66 2    
@<TRIPOS>SUBSTRUCTURE
     1 UNK         1 GROUP             0       ****    0 ROOT    
