@<TRIPOS>MOLECULE
3R135
127   129    1
SMALL
USER_CHARGES


@<TRIPOS>ATOM
      1 CA        -85.4389   28.9314  -74.1908 C.3       0 UNK        -0.1998 
      2 C         -84.0413   28.3610  -74.0015 C.2       0 UNK         0.4909 
      3 O         -83.2986   28.2242  -74.9741 O.2       0 UNK        -0.5240 
      4 N         -83.6743   28.0366  -72.7559 N.am      1 UNK        -0.4739 
      5 CA        -82.3863   27.4363  -72.3937 C.3       1 UNK         0.0864 
      6 C6        -82.1190   27.5083  -70.8689 C.3       11 UNK        -0.0881 
      7 S7        -82.1775   29.2106  -70.2138 S.3       11 UNK        -0.2682 
      8 C8        -80.4610   29.4563  -69.6382 C.3       11 UNK         0.0289 
      9 C9        -79.4059   29.6156  -70.7353 C.ar      11 UNK        -0.0687 
     10 C10       -79.7227   30.0413  -72.0320 C.ar      11 UNK        -0.0823 
     11 C11       -78.7263   30.2223  -72.9966 C.ar      11 UNK        -0.0830 
     12 C12       -77.3884   30.0076  -72.6409 C.ar      11 UNK        -0.1021 
     13 C13       -77.0538   29.5896  -71.3509 C.ar      11 UNK        -0.0753 
     14 C14       -78.0660   29.3853  -70.4094 C.ar      11 UNK        -0.0933 
     15 C15       -75.5959   29.4149  -70.9556 C.3       11 UNK         0.0166 
     16 S16       -74.9248   27.8030  -71.4700 S.3       11 UNK        -0.2615 
     17 C17       -73.2735   27.9102  -70.6955 C.3       11 UNK        -0.0865 
     18 CA        -72.2113   28.5248  -71.6536 C.3       10 UNK         0.0862 
     19 C         -70.9584   29.0905  -70.9118 C.2       10 UNK         0.5551 
     20 N         -69.7893   29.1356  -71.5396 N.am      10 UNK        -0.7319 
     21 O         -71.0484   29.5294  -69.7677 O.2       10 UNK        -0.5018 
     22 N         -71.9091   27.6464  -72.7990 N.am      10 UNK        -0.4509 
     23 C         -71.2435   26.4820  -72.7558 C.2       10 UNK         0.4899 
     24 O         -70.8206   25.9745  -71.7165 O.2       10 UNK        -0.4839 
     25 CA        -70.9919   25.7542  -74.0895 C.3       9 UNK         0.0222 
     26 CB        -71.5371   24.3163  -74.0466 C.3       9 UNK        -0.1966 
     27 N         -71.5865   26.4459  -75.2340 N.am      9 UNK        -0.4218 
     28 C         -70.9772   27.3555  -76.0050 C.2       9 UNK         0.5020 
     29 O         -69.8246   27.7499  -75.8177 O.2       9 UNK        -0.5274 
     30 CA        -71.8142   27.9132  -77.1748 C.3       8 UNK         0.0270 
     31 CB        -70.9772   28.7042  -78.2025 C.3       8 UNK        -0.1976 
     32 N         -72.6162   26.8726  -77.8316 N.am      8 UNK        -0.4313 
     33 C         -72.1714   25.7671  -78.4515 C.2       8 UNK         0.5041 
     34 O         -70.9803   25.5157  -78.6399 O.2       8 UNK        -0.5577 
     35 CA        -73.2218   24.7401  -78.9176 C.3       7 UNK         0.0284 
     36 CB        -73.1596   23.4837  -78.0326 C.3       7 UNK        -0.1958 
     37 N         -74.5947   25.2502  -78.9119 N.am      7 UNK        -0.4454 
     38 C         -75.0941   26.1253  -79.7942 C.2       7 UNK         0.5089 
     39 O         -74.4650   26.5679  -80.7553 O.2       7 UNK        -0.5125 
     40 CA        -76.5293   26.6150  -79.5357 C.3       6 UNK         0.0408 
     41 CB        -77.5531   25.6386  -80.1364 C.3       6 UNK        -0.1791 
     42 N         -76.8186   26.8150  -78.1119 N.am      6 UNK        -0.4762 
     43 C         -76.2362   27.7375  -77.3300 C.2       6 UNK         0.5007 
     44 O         -75.3645   28.5146  -77.7197 O.2       6 UNK        -0.5032 
     45 CA        -76.6676   27.7507  -75.8499 C.3       5 UNK         0.0783 
     46 C46       -78.0706   28.3831  -75.6694 C.3       11 UNK        -0.0857 
     47 S47       -78.0079   30.2050  -75.7473 S.3       11 UNK        -0.2512 
     48 C48       -79.1373   30.6872  -74.3949 C.3       11 UNK         0.0225 
     49 N         -76.6002   26.4059  -75.2767 N.am      5 UNK        -0.4615 
     50 C         -75.4626   25.7231  -75.0799 C.2       4 UNK         0.5053 
     51 O         -74.3439   26.1829  -75.3052 O.2       4 UNK        -0.5105 
     52 CA        -75.5835   24.2673  -74.5927 C.3       4 UNK         0.0263 
     53 CB        -75.5523   24.2213  -73.0566 C.3       4 UNK        -0.1981 
     54 N         -76.7876   23.5859  -75.0739 N.am      4 UNK        -0.4224 
     55 C         -77.1349   23.4354  -76.3610 C.2       3 UNK         0.4895 
     56 O         -76.4057   23.7413  -77.3036 O.2       3 UNK        -0.5091 
     57 CA        -78.5565   22.9203  -76.6560 C.3       3 UNK         0.0250 
     58 CB        -78.5130   21.4351  -77.0484 C.3       3 UNK        -0.1996 
     59 N         -79.5269   23.1074  -75.5668 N.am      3 UNK        -0.4254 
     60 C         -79.8419   24.2738  -74.9834 C.2       2 UNK         0.5004 
     61 O         -79.3180   25.3533  -75.2760 O.2       2 UNK        -0.5226 
     62 CA        -80.8708   24.2086  -73.8484 C.3       2 UNK         0.0269 
     63 CB        -80.3522   23.3704  -72.6628 C.3       2 UNK        -0.1926 
     64 N         -81.1591   25.5638  -73.3873 N.am      2 UNK        -0.4687 
     65 C         -82.3196   25.9712  -72.8672 C.2       1 UNK         0.5165 
     66 O         -83.2973   25.2337  -72.7136 O.2       1 UNK        -0.5079 
     67 H67       -85.9781   29.0107  -73.2469 H         1 UNK         0.0900 
     68 H68       -86.0168   28.2935  -74.8589 H         1 UNK         0.0900 
     69 H69       -85.3816   29.9257  -74.6329 H         1 UNK         0.0900 
     70 H70       -84.3247   28.1613  -71.9935 H         1 UNK         0.2959 
     71 H71       -81.6025   27.9959  -72.9084 H         1 UNK         0.1079 
     72 H72       -82.8562   26.9167  -70.3222 H         1 UNK         0.0837 
     73 H73       -81.1478   27.0674  -70.6346 H         1 UNK         0.0837 
     74 H74       -80.4394   30.3543  -69.0197 H         1 UNK         0.0685 
     75 H75       -80.1941   28.6270  -68.9810 H         1 UNK         0.0685 
     76 H76       -80.7495   30.2502  -72.2968 H         1 UNK         0.1434 
     77 H77       -76.5985   30.1730  -73.3598 H         1 UNK         0.1329 
     78 H78       -77.8055   29.0742  -69.4067 H         1 UNK         0.1335 
     79 H79       -74.9981   30.2116  -71.4010 H         1 UNK         0.0680 
     80 H80       -75.4914   29.5229  -69.8748 H         1 UNK         0.0680 
     81 H81       -72.9699   26.9133  -70.3735 H         1 UNK         0.1032 
     82 H82       -73.3667   28.4921  -69.7772 H         1 UNK         0.1032 
     83 H83       -72.6601   29.4154  -72.0948 H         1 UNK         0.0461 
     84 H84       -68.9858   29.5125  -71.0622 H         1 UNK         0.3453 
     85 H85       -69.7027   28.7915  -72.4827 H         1 UNK         0.3453 
     86 H86       -72.2245   27.9757  -73.6986 H         1 UNK         0.2984 
     87 H87       -69.9102   25.6977  -74.2262 H         1 UNK         0.0554 
     88 H88       -72.6101   24.2994  -73.8619 H         1 UNK         0.0847 
     89 H89       -71.0612   23.7388  -73.2530 H         1 UNK         0.0847 
     90 H90       -71.3491   23.7922  -74.9839 H         1 UNK         0.0847 
     91 H91       -72.5732   26.2512  -75.4089 H         1 UNK         0.3141 
     92 H92       -72.5296   28.6074  -76.7309 H         1 UNK         0.0743 
     93 H93       -70.1963   28.0889  -78.6504 H         1 UNK         0.0784 
     94 H94       -71.6023   29.0919  -79.0069 H         1 UNK         0.0784 
     95 H95       -70.4876   29.5580  -77.7326 H         1 UNK         0.0784 
     96 H96       -73.6182   26.9773  -77.7300 H         1 UNK         0.3213 
     97 H97       -72.9673   24.4539  -79.9404 H         1 UNK         0.0855 
     98 H98       -73.3879   23.7158  -76.9922 H         1 UNK         0.0814 
     99 H99       -72.1651   23.0361  -78.0559 H         1 UNK         0.0814 
    100 H100      -73.8651   22.7238  -78.3693 H         1 UNK         0.0814 
    101 H101      -75.2200   24.8735  -78.2017 H         1 UNK         0.3105 
    102 H102      -76.6454   27.5788  -80.0359 H         1 UNK         0.0547 
    103 H103      -77.3771   25.4993  -81.2039 H         1 UNK         0.0837 
    104 H104      -77.5004   24.6552  -79.6680 H         1 UNK         0.0837 
    105 H105      -78.5714   26.0107  -80.0237 H         1 UNK         0.0837 
    106 H106      -77.4859   26.1842  -77.6908 H         1 UNK         0.3020 
    107 H107      -75.9421   28.3582  -75.3029 H         1 UNK         0.1245 
    108 H108      -78.4790   28.0917  -74.7009 H         1 UNK         0.0781 
    109 H109      -78.7847   28.0124  -76.4075 H         1 UNK         0.0781 
    110 H110      -80.1314   30.3064  -74.6363 H         1 UNK         0.0836 
    111 H111      -79.2186   31.7747  -74.3854 H         1 UNK         0.0836 
    112 H112      -77.4915   25.9465  -75.1115 H         1 UNK         0.3022 
    113 H113      -74.7216   23.7180  -74.9746 H         1 UNK         0.0747 
    114 H114      -75.5194   23.1954  -72.6894 H         1 UNK         0.0793 
    115 H115      -74.6721   24.7334  -72.6649 H         1 UNK         0.0793 
    116 H116      -76.4258   24.7085  -72.6208 H         1 UNK         0.0793 
    117 H117      -77.4524   23.2959  -74.3727 H         1 UNK         0.3047 
    118 H118      -78.9237   23.4886  -77.5131 H         1 UNK         0.0822 
    119 H119      -79.4908   21.0807  -77.3752 H         1 UNK         0.0807 
    120 H120      -78.1864   20.8074  -76.2184 H         1 UNK         0.0807 
    121 H121      -77.8196   21.2693  -77.8746 H         1 UNK         0.0807 
    122 H122      -80.0013   22.2727  -75.2522 H         1 UNK         0.2946 
    123 H123      -81.7800   23.7565  -74.2520 H         1 UNK         0.1144 
    124 H124      -80.1575   22.3379  -72.9545 H         1 UNK         0.0793 
    125 H125      -81.0817   23.3373  -71.8533 H         1 UNK         0.0793 
    126 H126      -79.4253   23.7779  -72.2568 H         1 UNK         0.0793 
    127 H127      -80.4178   26.2293  -73.5675 H         1 UNK         0.2896 
@<TRIPOS>BOND
     1    1    2 1    
     2    1   67 1    
     3    1   68 1    
     4    1   69 1    
     5    2    3 2    
     6    2    4 am   BACKBONE|DICT|INTERRES
     7    4    5 1    
     8    4   70 1    
     9    5    6 1    
    10    5   65 1    
    11    5   71 1    
    12    6    7 1    
    13    6   72 1    
    14    6   73 1    
    15    7    8 1    
    16    8    9 1    
    17    8   74 1    
    18    8   75 1    
    19    9   10 ar   
    20    9   14 ar   
    21   10   11 ar   
    22   10   76 1    
    23   11   12 ar   
    24   11   48 1    
    25   12   13 ar   
    26   12   77 1    
    27   13   14 ar   
    28   13   15 1    
    29   14   78 1    
    30   15   16 1    
    31   15   79 1    
    32   15   80 1    
    33   16   17 1    
    34   17   18 1    
    35   17   81 1    
    36   17   82 1    
    37   18   19 1    
    38   18   22 1    
    39   18   83 1    
    40   19   20 am   BACKBONE|DICT|INTERRES
    41   19   21 2    
    42   20   84 1    
    43   20   85 1    
    44   22   23 am   BACKBONE|DICT|INTERRES
    45   22   86 1    
    46   23   24 2    
    47   23   25 1    
    48   25   26 1    
    49   25   27 1    
    50   25   87 1    
    51   26   88 1    
    52   26   89 1    
    53   26   90 1    
    54   27   28 am   BACKBONE|DICT|INTERRES
    55   27   91 1    
    56   28   29 2    
    57   28   30 1    
    58   30   31 1    
    59   30   32 1    
    60   30   92 1    
    61   31   93 1    
    62   31   94 1    
    63   31   95 1    
    64   32   33 am   BACKBONE|DICT|INTERRES
    65   32   96 1    
    66   33   34 2    
    67   33   35 1    
    68   35   36 1    
    69   35   37 1    
    70   35   97 1    
    71   36   98 1    
    72   36   99 1    
    73   36  100 1    
    74   37   38 am   BACKBONE|DICT|INTERRES
    75   37  101 1    
    76   38   39 2    
    77   38   40 1    
    78   40   41 1    
    79   40   42 1    
    80   40  102 1    
    81   41  103 1    
    82   41  104 1    
    83   41  105 1    
    84   42   43 am   BACKBONE|DICT|INTERRES
    85   42  106 1    
    86   43   44 2    
    87   43   45 1    
    88   45   46 1    
    89   45   49 1    
    90   45  107 1    
    91   46   47 1    
    92   46  108 1    
    93   46  109 1    
    94   47   48 1    
    95   48  110 1    
    96   48  111 1    
    97   49   50 am   BACKBONE|DICT|INTERRES
    98   49  112 1    
    99   50   51 2    
   100   50   52 1    
   101   52   53 1    
   102   52   54 1    
   103   52  113 1    
   104   53  114 1    
   105   53  115 1    
   106   53  116 1    
   107   54   55 am   BACKBONE|DICT|INTERRES
   108   54  117 1    
   109   55   56 2    
   110   55   57 1    
   111   57   58 1    
   112   57   59 1    
   113   57  118 1    
   114   58  119 1    
   115   58  120 1    
   116   58  121 1    
   117   59   60 am   BACKBONE|DICT|INTERRES
   118   59  122 1    
   119   60   61 2    
   120   60   62 1    
   121   62   63 1    
   122   62   64 1    
   123   62  123 1    
   124   63  124 1    
   125   63  125 1    
   126   63  126 1    
   127   64   65 am   BACKBONE|DICT|INTERRES
   128   64  127 1    
   129   65   66 2    
@<TRIPOS>SUBSTRUCTURE
     1 UNK         1 GROUP             0       ****    0 ROOT    
