@<TRIPOS>MOLECULE
3R135
127   129    1
SMALL
USER_CHARGES


@<TRIPOS>ATOM
      1 CA        -79.0250   27.8794  -77.3564 C.3       0 UNK        -0.1998 
      2 C         -79.1539   27.0755  -76.0729 C.2       0 UNK         0.4909 
      3 O         -78.7050   25.9297  -76.0219 O.2       0 UNK        -0.5240 
      4 N         -79.7770   27.6571  -75.0391 N.am      1 UNK        -0.4739 
      5 CA        -80.0769   26.9972  -73.7618 C.3       1 UNK         0.0864 
      6 C6        -80.6278   28.0043  -72.7204 C.3       11 UNK        -0.0881 
      7 S7        -80.4914   27.3836  -71.0113 S.3       11 UNK        -0.2682 
      8 C8        -79.3083   28.5600  -70.2782 C.3       11 UNK         0.0289 
      9 C9        -77.9242   28.4682  -70.9077 C.ar      11 UNK        -0.0687 
     10 C10       -77.1810   27.2897  -70.7951 C.ar      11 UNK        -0.0823 
     11 C11       -75.8978   27.2055  -71.3410 C.ar      11 UNK        -0.0830 
     12 C12       -75.3573   28.3117  -72.0022 C.ar      11 UNK        -0.1021 
     13 C13       -76.0863   29.4995  -72.1176 C.ar      11 UNK        -0.0753 
     14 C14       -77.3727   29.5693  -71.5723 C.ar      11 UNK        -0.0933 
     15 C15       -75.4816   30.7029  -72.8293 C.3       11 UNK         0.0166 
     16 S16       -73.9271   31.2329  -72.0457 S.3       11 UNK        -0.2615 
     17 C17       -73.4320   32.6177  -73.1265 C.3       11 UNK        -0.0865 
     18 CA        -72.7873   32.1846  -74.4788 C.3       10 UNK         0.0862 
     19 C         -72.4057   33.4053  -75.3697 C.2       10 UNK         0.5551 
     20 N         -71.3364   33.3438  -76.1542 N.am      10 UNK        -0.7319 
     21 O         -73.1047   34.4160  -75.3747 O.2       10 UNK        -0.5018 
     22 N         -71.7287   31.1652  -74.3526 N.am      10 UNK        -0.4509 
     23 C         -70.5923   31.2705  -73.6479 C.2       10 UNK         0.4899 
     24 O         -70.2896   32.2680  -72.9916 O.2       10 UNK        -0.4839 
     25 CA        -69.5939   30.0923  -73.7129 C.3       9 UNK         0.0222 
     26 CB        -68.9367   29.8044  -72.3456 C.3       9 UNK        -0.1966 
     27 N         -70.1352   28.8677  -74.3212 N.am      9 UNK        -0.4218 
     28 C         -71.0856   28.0579  -73.8315 C.2       9 UNK         0.5020 
     29 O         -71.6078   28.1756  -72.7218 O.2       9 UNK        -0.5274 
     30 CA        -71.5687   26.9450  -74.7785 C.3       8 UNK         0.0270 
     31 CB        -71.3336   25.5528  -74.1697 C.3       8 UNK        -0.1976 
     32 N         -72.9869   27.1112  -75.1087 N.am      8 UNK        -0.4313 
     33 C         -73.4977   28.1789  -75.7392 C.2       8 UNK         0.5041 
     34 O         -72.8094   29.1208  -76.1408 O.2       8 UNK        -0.5577 
     35 CA        -75.0243   28.1975  -75.9517 C.3       7 UNK         0.0284 
     36 CB        -75.4907   29.3814  -76.8255 C.3       7 UNK        -0.1958 
     37 N         -75.5632   26.9341  -76.4670 N.am      7 UNK        -0.4454 
     38 C         -75.2139   26.2688  -77.5809 C.2       7 UNK         0.5089 
     39 O         -74.3455   26.6422  -78.3701 O.2       7 UNK        -0.5125 
     40 CA        -75.9984   24.9669  -77.8554 C.3       6 UNK         0.0408 
     41 CB        -75.2463   23.9786  -78.7714 C.3       6 UNK        -0.1791 
     42 N         -76.4582   24.3283  -76.6148 N.am      6 UNK        -0.4762 
     43 C         -75.6940   23.7838  -75.6546 C.2       6 UNK         0.5007 
     44 O         -74.4874   23.5696  -75.7731 O.2       6 UNK        -0.5032 
     45 CA        -76.3932   23.4736  -74.3148 C.3       5 UNK         0.0783 
     46 C46       -76.4072   24.7076  -73.3788 C.3       11 UNK        -0.0857 
     47 S47       -74.7379   25.1567  -72.8003 S.3       11 UNK        -0.2512 
     48 C48       -75.0832   25.9300  -71.1931 C.3       11 UNK         0.0225 
     49 N         -77.7485   22.9648  -74.5291 N.am      5 UNK        -0.4615 
     50 C         -78.0288   21.6936  -74.8440 C.2       4 UNK         0.5053 
     51 O         -77.1808   20.8071  -74.9470 O.2       4 UNK        -0.5105 
     52 CA        -79.5047   21.3568  -75.0888 C.3       4 UNK         0.0263 
     53 CB        -80.2362   21.1124  -73.7589 C.3       4 UNK        -0.1981 
     54 N         -80.1770   22.4257  -75.8249 N.am      4 UNK        -0.4224 
     55 C         -80.1567   22.5602  -77.1592 C.2       3 UNK         0.4895 
     56 O         -79.5700   21.7767  -77.9071 O.2       3 UNK        -0.5091 
     57 CA        -80.8906   23.7709  -77.7755 C.3       3 UNK         0.0250 
     58 CB        -81.7381   23.3760  -79.0031 C.3       3 UNK        -0.1996 
     59 N         -81.6798   24.5511  -76.8133 N.am      3 UNK        -0.4254 
     60 C         -82.7598   24.1716  -76.1110 C.2       2 UNK         0.5004 
     61 O         -83.3401   23.0969  -76.2670 O.2       2 UNK        -0.5226 
     62 CA        -83.2404   25.1503  -75.0180 C.3       2 UNK         0.0269 
     63 CB        -83.8621   24.4188  -73.8087 C.3       2 UNK        -0.1926 
     64 N         -82.1993   26.0936  -74.5744 N.am      2 UNK        -0.4687 
     65 C         -81.0271   25.8010  -73.9831 C.2       1 UNK         0.5165 
     66 O         -80.6491   24.6567  -73.7230 O.2       1 UNK        -0.5079 
     67 H67       -78.0444   27.7281  -77.8047 H         1 UNK         0.0900 
     68 H68       -79.7763   27.5552  -78.0757 H         1 UNK         0.0900 
     69 H69       -79.1565   28.9467  -77.1801 H         1 UNK         0.0900 
     70 H70       -80.1176   28.6031  -75.1387 H         1 UNK         0.2959 
     71 H71       -79.1329   26.5987  -73.3828 H         1 UNK         0.1079 
     72 H72       -81.6689   28.2651  -72.9187 H         1 UNK         0.0837 
     73 H73       -80.0775   28.9436  -72.7907 H         1 UNK         0.0837 
     74 H74       -79.7115   29.5706  -70.3614 H         1 UNK         0.0685 
     75 H75       -79.2242   28.3524  -69.2106 H         1 UNK         0.0685 
     76 H76       -77.6046   26.4413  -70.2750 H         1 UNK         0.1434 
     77 H77       -74.3586   28.2526  -72.4150 H         1 UNK         0.1329 
     78 H78       -77.9409   30.4857  -71.6546 H         1 UNK         0.1335 
     79 H79       -76.1800   31.5411  -72.8369 H         1 UNK         0.0680 
     80 H80       -75.2917   30.4445  -73.8703 H         1 UNK         0.0680 
     81 H81       -74.3099   33.2412  -73.3054 H         1 UNK         0.1032 
     82 H82       -72.7377   33.2448  -72.5651 H         1 UNK         0.1032 
     83 H83       -73.5702   31.6844  -75.0479 H         1 UNK         0.0461 
     84 H84       -70.7670   32.5132  -76.1722 H         1 UNK         0.3453 
     85 H85       -71.1014   34.1330  -76.7353 H         1 UNK         0.3453 
     86 H86       -71.8945   30.3225  -74.8961 H         1 UNK         0.2984 
     87 H87       -68.8008   30.4216  -74.3856 H         1 UNK         0.0554 
     88 H88       -68.3808   30.6721  -71.9884 H         1 UNK         0.0847 
     89 H89       -68.2326   28.9748  -72.4082 H         1 UNK         0.0847 
     90 H90       -69.6765   29.5617  -71.5824 H         1 UNK         0.0847 
     91 H91       -69.8055   28.6798  -75.2586 H         1 UNK         0.3141 
     92 H92       -71.0094   26.9996  -75.7149 H         1 UNK         0.0743 
     93 H93       -71.8211   25.4470  -73.2001 H         1 UNK         0.0784 
     94 H94       -71.7074   24.7625  -74.8216 H         1 UNK         0.0784 
     95 H95       -70.2691   25.3724  -74.0160 H         1 UNK         0.0784 
     96 H96       -73.6134   26.3874  -74.7836 H         1 UNK         0.3213 
     97 H97       -75.4622   28.3277  -74.9617 H         1 UNK         0.0855 
     98 H98       -75.1134   29.3023  -77.8455 H         1 UNK         0.0814 
     99 H99       -75.1389   30.3319  -76.4238 H         1 UNK         0.0814 
    100 H100      -76.5768   29.4409  -76.8702 H         1 UNK         0.0814 
    101 H101      -76.3002   26.5169  -75.9156 H         1 UNK         0.3105 
    102 H102      -76.9043   25.2704  -78.3822 H         1 UNK         0.0547 
    103 H103      -75.8164   23.0614  -78.9183 H         1 UNK         0.0837 
    104 H104      -74.2702   23.7085  -78.3683 H         1 UNK         0.0837 
    105 H105      -75.0763   24.4155  -79.7560 H         1 UNK         0.0837 
    106 H106      -77.4310   24.5159  -76.3858 H         1 UNK         0.3020 
    107 H107      -75.8103   22.6896  -73.8243 H         1 UNK         0.1245 
    108 H108      -77.0229   24.4934  -72.5035 H         1 UNK         0.0781 
    109 H109      -76.8632   25.5734  -73.8621 H         1 UNK         0.0781 
    110 H110      -74.1356   26.1689  -70.7081 H         1 UNK         0.0836 
    111 H111      -75.5865   25.2100  -70.5459 H         1 UNK         0.0836 
    112 H112      -78.5069   23.6306  -74.4598 H         1 UNK         0.3022 
    113 H113      -79.5498   20.4352  -75.6736 H         1 UNK         0.0747 
    114 H114      -81.2775   20.8359  -73.9258 H         1 UNK         0.0793 
    115 H115      -79.7697   20.2988  -73.2017 H         1 UNK         0.0793 
    116 H116      -80.2240   21.9954  -73.1186 H         1 UNK         0.0793 
    117 H117      -80.6473   23.1315  -75.2705 H         1 UNK         0.3047 
    118 H118      -80.1035   24.4417  -78.1235 H         1 UNK         0.0822 
    119 H119      -82.2356   24.2428  -79.4378 H         1 UNK         0.0807 
    120 H120      -82.5025   22.6409  -78.7502 H         1 UNK         0.0807 
    121 H121      -81.1153   22.9373  -79.7837 H         1 UNK         0.0807 
    122 H122      -81.2821   25.4472  -76.5711 H         1 UNK         0.2946 
    123 H123      -84.0261   25.7497  -75.4812 H         1 UNK         0.1144 
    124 H124      -84.1955   25.1236  -73.0471 H         1 UNK         0.0793 
    125 H125      -83.1558   23.7307  -73.3429 H         1 UNK         0.0793 
    126 H126      -84.7327   23.8342  -74.1089 H         1 UNK         0.0793 
    127 H127      -82.3852   27.0656  -74.7815 H         1 UNK         0.2896 
@<TRIPOS>BOND
     1    1    2 1    
     2    1   67 1    
     3    1   68 1    
     4    1   69 1    
     5    2    3 2    
     6    2    4 am   BACKBONE|DICT|INTERRES
     7    4    5 1    
     8    4   70 1    
     9    5    6 1    
    10    5   65 1    
    11    5   71 1    
    12    6    7 1    
    13    6   72 1    
    14    6   73 1    
    15    7    8 1    
    16    8    9 1    
    17    8   74 1    
    18    8   75 1    
    19    9   10 ar   
    20    9   14 ar   
    21   10   11 ar   
    22   10   76 1    
    23   11   12 ar   
    24   11   48 1    
    25   12   13 ar   
    26   12   77 1    
    27   13   14 ar   
    28   13   15 1    
    29   14   78 1    
    30   15   16 1    
    31   15   79 1    
    32   15   80 1    
    33   16   17 1    
    34   17   18 1    
    35   17   81 1    
    36   17   82 1    
    37   18   19 1    
    38   18   22 1    
    39   18   83 1    
    40   19   20 am   BACKBONE|DICT|INTERRES
    41   19   21 2    
    42   20   84 1    
    43   20   85 1    
    44   22   23 am   BACKBONE|DICT|INTERRES
    45   22   86 1    
    46   23   24 2    
    47   23   25 1    
    48   25   26 1    
    49   25   27 1    
    50   25   87 1    
    51   26   88 1    
    52   26   89 1    
    53   26   90 1    
    54   27   28 am   BACKBONE|DICT|INTERRES
    55   27   91 1    
    56   28   29 2    
    57   28   30 1    
    58   30   31 1    
    59   30   32 1    
    60   30   92 1    
    61   31   93 1    
    62   31   94 1    
    63   31   95 1    
    64   32   33 am   BACKBONE|DICT|INTERRES
    65   32   96 1    
    66   33   34 2    
    67   33   35 1    
    68   35   36 1    
    69   35   37 1    
    70   35   97 1    
    71   36   98 1    
    72   36   99 1    
    73   36  100 1    
    74   37   38 am   BACKBONE|DICT|INTERRES
    75   37  101 1    
    76   38   39 2    
    77   38   40 1    
    78   40   41 1    
    79   40   42 1    
    80   40  102 1    
    81   41  103 1    
    82   41  104 1    
    83   41  105 1    
    84   42   43 am   BACKBONE|DICT|INTERRES
    85   42  106 1    
    86   43   44 2    
    87   43   45 1    
    88   45   46 1    
    89   45   49 1    
    90   45  107 1    
    91   46   47 1    
    92   46  108 1    
    93   46  109 1    
    94   47   48 1    
    95   48  110 1    
    96   48  111 1    
    97   49   50 am   BACKBONE|DICT|INTERRES
    98   49  112 1    
    99   50   51 2    
   100   50   52 1    
   101   52   53 1    
   102   52   54 1    
   103   52  113 1    
   104   53  114 1    
   105   53  115 1    
   106   53  116 1    
   107   54   55 am   BACKBONE|DICT|INTERRES
   108   54  117 1    
   109   55   56 2    
   110   55   57 1    
   111   57   58 1    
   112   57   59 1    
   113   57  118 1    
   114   58  119 1    
   115   58  120 1    
   116   58  121 1    
   117   59   60 am   BACKBONE|DICT|INTERRES
   118   59  122 1    
   119   60   61 2    
   120   60   62 1    
   121   62   63 1    
   122   62   64 1    
   123   62  123 1    
   124   63  124 1    
   125   63  125 1    
   126   63  126 1    
   127   64   65 am   BACKBONE|DICT|INTERRES
   128   64  127 1    
   129   65   66 2    
@<TRIPOS>SUBSTRUCTURE
     1 UNK         1 GROUP             0       ****    0 ROOT    
