@<TRIPOS>MOLECULE
3R135
127   129    1
SMALL
USER_CHARGES


@<TRIPOS>ATOM
      1 CA        -80.1042   23.8969  -72.5897 C.3       0 UNK        -0.1998 
      2 C         -80.2532   25.1552  -73.4295 C.2       0 UNK         0.4909 
      3 O         -79.3629   25.4631  -74.2244 O.2       0 UNK        -0.5240 
      4 N         -81.3876   25.8536  -73.2657 N.am      1 UNK        -0.4739 
      5 CA        -81.7271   27.1830  -73.8090 C.3       1 UNK         0.0864 
      6 C6        -81.0939   28.3340  -72.9828 C.3       11 UNK        -0.0881 
      7 S7        -81.7456   28.3402  -71.2779 S.3       11 UNK        -0.2682 
      8 C8        -80.8938   29.7834  -70.5587 C.3       11 UNK         0.0289 
      9 C9        -79.3845   29.6018  -70.4299 C.ar      11 UNK        -0.0687 
     10 C10       -78.8410   28.3998  -69.9606 C.ar      11 UNK        -0.0823 
     11 C11       -77.4576   28.2392  -69.8615 C.ar      11 UNK        -0.0830 
     12 C12       -76.6171   29.3124  -70.1632 C.ar      11 UNK        -0.1021 
     13 C13       -77.1400   30.5078  -70.6606 C.ar      11 UNK        -0.0753 
     14 C14       -78.5260   30.6484  -70.7857 C.ar      11 UNK        -0.0933 
     15 C15       -76.2054   31.6301  -71.0932 C.3       11 UNK         0.0166 
     16 S16       -75.3960   31.2543  -72.6867 S.3       11 UNK        -0.2615 
     17 C17       -74.0398   30.1451  -72.1674 C.3       11 UNK        -0.0865 
     18 CA        -72.7430   30.3631  -72.9835 C.3       10 UNK         0.0862 
     19 C         -71.5450   29.6401  -72.3128 C.2       10 UNK         0.5551 
     20 N         -70.6207   30.3819  -71.7189 N.am      10 UNK        -0.7319 
     21 O         -71.4772   28.4133  -72.2857 O.2       10 UNK        -0.5018 
     22 N         -72.8994   29.9134  -74.3712 N.am      10 UNK        -0.4509 
     23 C         -72.1093   30.3008  -75.3793 C.2       10 UNK         0.4899 
     24 O         -71.2558   31.1851  -75.2834 O.2       10 UNK        -0.4839 
     25 CA        -72.3055   29.5525  -76.7096 C.3       9 UNK         0.0222 
     26 CB        -71.3329   30.0060  -77.8188 C.3       9 UNK        -0.1966 
     27 N         -72.2546   28.0986  -76.5262 N.am      9 UNK        -0.4218 
     28 C         -71.2360   27.3577  -76.0600 C.2       9 UNK         0.5020 
     29 O         -70.1266   27.8103  -75.7742 O.2       9 UNK        -0.5274 
     30 CA        -71.4898   25.8484  -75.8693 C.3       8 UNK         0.0270 
     31 CB        -71.6444   25.5217  -74.3749 C.3       8 UNK        -0.1976 
     32 N         -72.6648   25.3511  -76.5917 N.am      8 UNK        -0.4313 
     33 C         -72.7418   25.2167  -77.9234 C.2       8 UNK         0.5041 
     34 O         -71.7935   25.4021  -78.6868 O.2       8 UNK        -0.5577 
     35 CA        -74.1202   24.8598  -78.5054 C.3       7 UNK         0.0284 
     36 CB        -74.3582   23.3422  -78.4558 C.3       7 UNK        -0.1958 
     37 N         -75.2196   25.5552  -77.8291 N.am      7 UNK        -0.4454 
     38 C         -75.4026   26.8835  -77.8199 C.2       7 UNK         0.5089 
     39 O         -74.6839   27.6788  -78.4232 O.2       7 UNK        -0.5125 
     40 CA        -76.5468   27.4224  -76.9469 C.3       6 UNK         0.0408 
     41 CB        -77.8942   27.3123  -77.6748 C.3       6 UNK        -0.1791 
     42 N         -76.6190   26.7396  -75.6545 N.am      6 UNK        -0.4762 
     43 C         -75.7064   26.8618  -74.6790 C.2       6 UNK         0.5007 
     44 O         -74.7399   27.6244  -74.7349 O.2       6 UNK        -0.5032 
     45 CA        -75.8903   25.9550  -73.4467 C.3       5 UNK         0.0783 
     46 C46       -76.7725   26.6619  -72.3956 C.3       11 UNK        -0.0857 
     47 S47       -77.0782   25.6746  -70.8837 S.3       11 UNK        -0.2512 
     48 C48       -76.8571   26.8814  -69.5250 C.3       11 UNK         0.0225 
     49 N         -76.3945   24.6307  -73.8260 N.am      5 UNK        -0.4615 
     50 C         -75.6500   23.7143  -74.4574 C.2       4 UNK         0.5053 
     51 O         -74.4868   23.9107  -74.8089 O.2       4 UNK        -0.5105 
     52 CA        -76.3064   22.3594  -74.7725 C.3       4 UNK         0.0263 
     53 CB        -76.2907   21.4583  -73.5273 C.3       4 UNK        -0.1981 
     54 N         -77.6719   22.4310  -75.3039 N.am      4 UNK        -0.4224 
     55 C         -78.0645   23.1447  -76.3683 C.2       3 UNK         0.4895 
     56 O         -77.3314   23.9235  -76.9761 O.2       3 UNK        -0.5091 
     57 CA        -79.5067   22.9626  -76.8590 C.3       3 UNK         0.0250 
     58 CB        -80.3411   21.9310  -76.0696 C.3       3 UNK        -0.1996 
     59 N         -80.1724   24.2605  -76.8301 N.am      3 UNK        -0.4254 
     60 C         -81.0011   24.7287  -77.7722 C.2       2 UNK         0.5004 
     61 O         -81.2871   24.1102  -78.7990 O.2       2 UNK        -0.5226 
     62 CA        -81.6411   26.1022  -77.5030 C.3       2 UNK         0.0269 
     63 CB        -82.9666   26.3037  -78.2621 C.3       2 UNK        -0.1926 
     64 N         -81.8757   26.2673  -76.0682 N.am      2 UNK        -0.4687 
     65 C         -81.4918   27.3153  -75.3308 C.2       1 UNK         0.5165 
     66 O         -80.9733   28.3291  -75.8014 O.2       1 UNK        -0.5079 
     67 H67       -79.7517   24.1553  -71.5915 H         1 UNK         0.0900 
     68 H68       -79.3818   23.2154  -73.0354 H         1 UNK         0.0900 
     69 H69       -81.0532   23.3696  -72.4953 H         1 UNK         0.0900 
     70 H70       -82.0676   25.4973  -72.6083 H         1 UNK         0.2959 
     71 H71       -82.8094   27.2766  -73.7030 H         1 UNK         0.1079 
     72 H72       -80.0064   28.2406  -72.9619 H         1 UNK         0.0837 
     73 H73       -81.3168   29.3071  -73.4245 H         1 UNK         0.0837 
     74 H74       -81.3044   29.9706  -69.5659 H         1 UNK         0.0685 
     75 H75       -81.1292   30.6621  -71.1613 H         1 UNK         0.0685 
     76 H76       -79.4903   27.5703  -69.7165 H         1 UNK         0.1434 
     77 H77       -75.5484   29.1891  -70.0723 H         1 UNK         0.1329 
     78 H78       -78.9366   31.5732  -71.1676 H         1 UNK         0.1335 
     79 H79       -76.7638   32.5609  -71.2032 H         1 UNK         0.0680 
     80 H80       -75.4582   31.8179  -70.3210 H         1 UNK         0.0680 
     81 H81       -74.3737   29.1093  -72.2475 H         1 UNK         0.1032 
     82 H82       -73.8358   30.3223  -71.1101 H         1 UNK         0.1032 
     83 H83       -72.5347   31.4354  -72.9938 H         1 UNK         0.0461 
     84 H84       -70.6718   31.3888  -71.7341 H         1 UNK         0.3453 
     85 H85       -69.8451   29.9264  -71.2639 H         1 UNK         0.3453 
     86 H86       -73.5502   29.1473  -74.5226 H         1 UNK         0.2984 
     87 H87       -73.3177   29.7822  -77.0455 H         1 UNK         0.0554 
     88 H88       -71.4484   31.0705  -78.0261 H         1 UNK         0.0847 
     89 H89       -71.5202   29.4720  -78.7504 H         1 UNK         0.0847 
     90 H90       -70.2915   29.8412  -77.5409 H         1 UNK         0.0847 
     91 H91       -73.1220   27.6168  -76.7239 H         1 UNK         0.3141 
     92 H92       -70.6115   25.3197  -76.2454 H         1 UNK         0.0743 
     93 H93       -70.7679   25.8439  -73.8110 H         1 UNK         0.0784 
     94 H94       -72.5091   26.0256  -73.9416 H         1 UNK         0.0784 
     95 H95       -71.7611   24.4505  -74.2104 H         1 UNK         0.0784 
     96 H96       -73.4663   25.0813  -76.0270 H         1 UNK         0.3213 
     97 H97       -74.1277   25.1722  -79.5519 H         1 UNK         0.0855 
     98 H98       -74.3770   22.9694  -77.4315 H         1 UNK         0.0814 
     99 H99       -73.5690   22.8060  -78.9844 H         1 UNK         0.0814 
    100 H100      -75.3046   23.0740  -78.9257 H         1 UNK         0.0814 
    101 H101      -75.9093   24.9721  -77.3557 H         1 UNK         0.3105 
    102 H102      -76.3529   28.4803  -76.7569 H         1 UNK         0.0547 
    103 H103      -77.8686   27.8498  -78.6234 H         1 UNK         0.0837 
    104 H104      -78.1572   26.2777  -77.8943 H         1 UNK         0.0837 
    105 H105      -78.6963   27.7460  -77.0792 H         1 UNK         0.0837 
    106 H106      -77.3763   26.0811  -75.5201 H         1 UNK         0.3020 
    107 H107      -74.9006   25.8169  -73.0048 H         1 UNK         0.1245 
    108 H108      -77.7401   26.9426  -72.8141 H         1 UNK         0.0781 
    109 H109      -76.2846   27.5966  -72.1269 H         1 UNK         0.0781 
    110 H110      -77.3206   26.4896  -68.6186 H         1 UNK         0.0836 
    111 H111      -75.7917   26.9735  -69.3082 H         1 UNK         0.0836 
    112 H112      -77.3648   24.4410  -73.6174 H         1 UNK         0.3022 
    113 H113      -75.6953   21.8808  -75.5403 H         1 UNK         0.0747 
    114 H114      -75.2814   21.3699  -73.1223 H         1 UNK         0.0793 
    115 H115      -76.9261   21.8534  -72.7335 H         1 UNK         0.0793 
    116 H116      -76.6315   20.4495  -73.7611 H         1 UNK         0.0793 
    117 H117      -78.3479   21.8149  -74.8776 H         1 UNK         0.3047 
    118 H118      -79.4240   22.6140  -77.8907 H         1 UNK         0.0822 
    119 H119      -81.3292   21.8132  -76.5150 H         1 UNK         0.0807 
    120 H120      -80.4879   22.2261  -75.0310 H         1 UNK         0.0807 
    121 H121      -79.8738   20.9453  -76.0816 H         1 UNK         0.0807 
    122 H122      -79.9444   24.8514  -76.0350 H         1 UNK         0.2946 
    123 H123      -80.9267   26.8472  -77.8597 H         1 UNK         0.1144 
    124 H124      -82.8168   26.2371  -79.3405 H         1 UNK         0.0793 
    125 H125      -83.3938   27.2855  -78.0573 H         1 UNK         0.0793 
    126 H126      -83.7065   25.5515  -77.9861 H         1 UNK         0.0793 
    127 H127      -82.2748   25.4706  -75.5901 H         1 UNK         0.2896 
@<TRIPOS>BOND
     1    1    2 1    
     2    1   67 1    
     3    1   68 1    
     4    1   69 1    
     5    2    3 2    
     6    2    4 am   BACKBONE|DICT|INTERRES
     7    4    5 1    
     8    4   70 1    
     9    5    6 1    
    10    5   65 1    
    11    5   71 1    
    12    6    7 1    
    13    6   72 1    
    14    6   73 1    
    15    7    8 1    
    16    8    9 1    
    17    8   74 1    
    18    8   75 1    
    19    9   10 ar   
    20    9   14 ar   
    21   10   11 ar   
    22   10   76 1    
    23   11   12 ar   
    24   11   48 1    
    25   12   13 ar   
    26   12   77 1    
    27   13   14 ar   
    28   13   15 1    
    29   14   78 1    
    30   15   16 1    
    31   15   79 1    
    32   15   80 1    
    33   16   17 1    
    34   17   18 1    
    35   17   81 1    
    36   17   82 1    
    37   18   19 1    
    38   18   22 1    
    39   18   83 1    
    40   19   20 am   BACKBONE|DICT|INTERRES
    41   19   21 2    
    42   20   84 1    
    43   20   85 1    
    44   22   23 am   BACKBONE|DICT|INTERRES
    45   22   86 1    
    46   23   24 2    
    47   23   25 1    
    48   25   26 1    
    49   25   27 1    
    50   25   87 1    
    51   26   88 1    
    52   26   89 1    
    53   26   90 1    
    54   27   28 am   BACKBONE|DICT|INTERRES
    55   27   91 1    
    56   28   29 2    
    57   28   30 1    
    58   30   31 1    
    59   30   32 1    
    60   30   92 1    
    61   31   93 1    
    62   31   94 1    
    63   31   95 1    
    64   32   33 am   BACKBONE|DICT|INTERRES
    65   32   96 1    
    66   33   34 2    
    67   33   35 1    
    68   35   36 1    
    69   35   37 1    
    70   35   97 1    
    71   36   98 1    
    72   36   99 1    
    73   36  100 1    
    74   37   38 am   BACKBONE|DICT|INTERRES
    75   37  101 1    
    76   38   39 2    
    77   38   40 1    
    78   40   41 1    
    79   40   42 1    
    80   40  102 1    
    81   41  103 1    
    82   41  104 1    
    83   41  105 1    
    84   42   43 am   BACKBONE|DICT|INTERRES
    85   42  106 1    
    86   43   44 2    
    87   43   45 1    
    88   45   46 1    
    89   45   49 1    
    90   45  107 1    
    91   46   47 1    
    92   46  108 1    
    93   46  109 1    
    94   47   48 1    
    95   48  110 1    
    96   48  111 1    
    97   49   50 am   BACKBONE|DICT|INTERRES
    98   49  112 1    
    99   50   51 2    
   100   50   52 1    
   101   52   53 1    
   102   52   54 1    
   103   52  113 1    
   104   53  114 1    
   105   53  115 1    
   106   53  116 1    
   107   54   55 am   BACKBONE|DICT|INTERRES
   108   54  117 1    
   109   55   56 2    
   110   55   57 1    
   111   57   58 1    
   112   57   59 1    
   113   57  118 1    
   114   58  119 1    
   115   58  120 1    
   116   58  121 1    
   117   59   60 am   BACKBONE|DICT|INTERRES
   118   59  122 1    
   119   60   61 2    
   120   60   62 1    
   121   62   63 1    
   122   62   64 1    
   123   62  123 1    
   124   63  124 1    
   125   63  125 1    
   126   63  126 1    
   127   64   65 am   BACKBONE|DICT|INTERRES
   128   64  127 1    
   129   65   66 2    
@<TRIPOS>SUBSTRUCTURE
     1 UNK         1 GROUP             0       ****    0 ROOT    
