@<TRIPOS>MOLECULE
3R135
127   129    1
SMALL
USER_CHARGES


@<TRIPOS>ATOM
      1 CA        -84.7931   27.2543  -70.7162 C.3       0 UNK        -0.1998 
      2 C         -84.5334   27.3371  -72.2127 C.2       0 UNK         0.4909 
      3 O         -85.2368   26.6950  -72.9932 O.2       0 UNK        -0.5240 
      4 N         -83.5299   28.1258  -72.6184 N.am      1 UNK        -0.4739 
      5 CA        -83.1042   28.3057  -74.0131 C.3       1 UNK         0.0864 
      6 C6        -82.2182   29.5671  -74.1976 C.3       11 UNK        -0.0881 
      7 S7        -80.8843   29.7395  -72.9596 S.3       11 UNK        -0.2682 
      8 C8        -79.4395   29.1885  -73.9116 C.3       11 UNK         0.0289 
      9 C9        -78.2257   29.0386  -73.0094 C.ar      11 UNK        -0.0687 
     10 C10       -78.0967   27.8988  -72.2113 C.ar      11 UNK        -0.0823 
     11 C11       -77.0069   27.7559  -71.3495 C.ar      11 UNK        -0.0830 
     12 C12       -76.0312   28.7545  -71.3132 C.ar      11 UNK        -0.1021 
     13 C13       -76.1288   29.8921  -72.1217 C.ar      11 UNK        -0.0753 
     14 C14       -77.2443   30.0352  -72.9582 C.ar      11 UNK        -0.0933 
     15 C15       -75.0245   30.9459  -72.0085 C.3       11 UNK         0.0166 
     16 S16       -74.8184   32.1109  -73.4059 S.3       11 UNK        -0.2615 
     17 C17       -74.5931   31.0432  -74.8747 C.3       11 UNK        -0.0865 
     18 CA        -73.1419   30.7454  -75.3643 C.3       10 UNK         0.0862 
     19 C         -72.2191   31.9901  -75.5451 C.2       10 UNK         0.5551 
     20 N         -70.9126   31.8823  -75.3414 N.am      10 UNK        -0.7319 
     21 O         -72.6842   33.0567  -75.9402 O.2       10 UNK        -0.5018 
     22 N         -72.5722   29.5354  -74.7400 N.am      10 UNK        -0.4509 
     23 C         -71.9935   29.4249  -73.5373 C.2       10 UNK         0.4899 
     24 O         -71.7156   30.3809  -72.8147 O.2       10 UNK        -0.4839 
     25 CA        -71.6803   28.0103  -73.0201 C.3       9 UNK         0.0222 
     26 CB        -72.6919   27.6116  -71.9341 C.3       9 UNK        -0.1966 
     27 N         -71.6774   26.9661  -74.0473 N.am      9 UNK        -0.4218 
     28 C         -70.6134   26.6405  -74.7931 C.2       9 UNK         0.5020 
     29 O         -69.5687   27.2925  -74.8147 O.2       9 UNK        -0.5274 
     30 CA        -70.7123   25.3532  -75.6261 C.3       8 UNK         0.0270 
     31 CB        -70.6096   24.1150  -74.7186 C.3       8 UNK        -0.1976 
     32 N         -71.9648   25.2946  -76.3785 N.am      8 UNK        -0.4313 
     33 C         -72.0636   25.4164  -77.7094 C.2       8 UNK         0.5041 
     34 O         -71.0945   25.5289  -78.4621 O.2       8 UNK        -0.5577 
     35 CA        -73.4795   25.4198  -78.3217 C.3       7 UNK         0.0284 
     36 CB        -73.8350   24.0193  -78.8471 C.3       7 UNK        -0.1958 
     37 N         -74.5371   25.8696  -77.4121 N.am      7 UNK        -0.4454 
     38 C         -74.5720   27.0538  -76.7867 C.2       7 UNK         0.5089 
     39 O         -73.7326   27.9378  -76.9455 O.2       7 UNK        -0.5125 
     40 CA        -75.6935   27.2675  -75.7588 C.3       6 UNK         0.0408 
     41 CB        -76.9191   27.8855  -76.4434 C.3       6 UNK        -0.1791 
     42 N         -76.0822   26.0595  -75.0257 N.am      6 UNK        -0.4762 
     43 C         -75.2507   25.2951  -74.2992 C.2       6 UNK         0.5007 
     44 O         -74.0324   25.4743  -74.2346 O.2       6 UNK        -0.5032 
     45 CA        -75.8792   24.0928  -73.5729 C.3       5 UNK         0.0783 
     46 C46       -76.7195   24.5078  -72.3423 C.3       11 UNK        -0.0857 
     47 S47       -75.7411   25.2914  -71.0182 S.3       11 UNK        -0.2512 
     48 C48       -76.9048   26.5562  -70.4157 C.3       11 UNK         0.0225 
     49 N         -76.6794   23.3207  -74.5214 N.am      5 UNK        -0.4615 
     50 C         -76.1727   22.4788  -75.4316 C.2       4 UNK         0.5053 
     51 O         -74.9848   22.1622  -75.4868 O.2       4 UNK        -0.5105 
     52 CA        -77.1545   21.9077  -76.4702 C.3       4 UNK         0.0263 
     53 CB        -77.7245   20.5638  -75.9893 C.3       4 UNK        -0.1981 
     54 N         -78.2590   22.8198  -76.7845 N.am      4 UNK        -0.4224 
     55 C         -78.1170   24.0047  -77.3967 C.2       3 UNK         0.4895 
     56 O         -77.0395   24.4446  -77.7960 O.2       3 UNK        -0.5091 
     57 CA        -79.3846   24.8612  -77.5532 C.3       3 UNK         0.0250 
     58 CB        -80.1191   24.5021  -78.8543 C.3       3 UNK        -0.1996 
     59 N         -80.3129   24.7623  -76.4216 N.am      3 UNK        -0.4254 
     60 C         -80.0288   25.1133  -75.1596 C.2       2 UNK         0.5004 
     61 O         -78.9262   25.5268  -74.7950 O.2       2 UNK        -0.5226 
     62 CA        -81.1606   24.9573  -74.1286 C.3       2 UNK         0.0269 
     63 CB        -80.6515   24.2771  -72.8455 C.3       2 UNK        -0.1926 
     64 N         -81.7833   26.2359  -73.7759 N.am      2 UNK        -0.4687 
     65 C         -82.4532   27.0408  -74.6156 C.2       1 UNK         0.5165 
     66 O         -82.6031   26.8043  -75.8151 O.2       1 UNK        -0.5079 
     67 H67       -84.1019   27.8761  -70.1474 H         1 UNK         0.0900 
     68 H68       -84.6848   26.2257  -70.3732 H         1 UNK         0.0900 
     69 H69       -85.8075   27.5835  -70.4926 H         1 UNK         0.0900 
     70 H70       -82.9844   28.6371  -71.9376 H         1 UNK         0.2959 
     71 H71       -84.0116   28.4697  -74.5995 H         1 UNK         0.1079 
     72 H72       -81.8047   29.6172  -75.2072 H         1 UNK         0.0837 
     73 H73       -82.8484   30.4530  -74.1055 H         1 UNK         0.0837 
     74 H74       -79.6608   28.2318  -74.3856 H         1 UNK         0.0685 
     75 H75       -79.2392   29.8986  -74.7154 H         1 UNK         0.0685 
     76 H76       -78.8633   27.1375  -72.2472 H         1 UNK         0.1434 
     77 H77       -75.1932   28.6471  -70.6383 H         1 UNK         0.1329 
     78 H78       -77.3566   30.9210  -73.5670 H         1 UNK         0.1335 
     79 H79       -75.2202   31.5373  -71.1134 H         1 UNK         0.0680 
     80 H80       -74.0727   30.4503  -71.8308 H         1 UNK         0.0680 
     81 H81       -75.1298   31.5382  -75.6857 H         1 UNK         0.1032 
     82 H82       -75.1317   30.1124  -74.7230 H         1 UNK         0.1032 
     83 H83       -73.2650   30.4255  -76.3988 H         1 UNK         0.0461 
     84 H84       -70.5269   31.0171  -74.9977 H         1 UNK         0.3453 
     85 H85       -70.3192   32.6845  -75.4810 H         1 UNK         0.3453 
     86 H86       -72.7083   28.6919  -75.2846 H         1 UNK         0.2984 
     87 H87       -70.6928   28.0483  -72.5550 H         1 UNK         0.0554 
     88 H88       -72.4412   26.6482  -71.4897 H         1 UNK         0.0847 
     89 H89       -73.7013   27.5363  -72.3397 H         1 UNK         0.0847 
     90 H90       -72.7134   28.3438  -71.1260 H         1 UNK         0.0847 
     91 H91       -72.5117   26.3819  -74.0924 H         1 UNK         0.3141 
     92 H92       -69.8572   25.3379  -76.3051 H         1 UNK         0.0743 
     93 H93       -71.4448   24.0508  -74.0196 H         1 UNK         0.0784 
     94 H94       -70.5968   23.1969  -75.3062 H         1 UNK         0.0784 
     95 H95       -69.6909   24.1362  -74.1307 H         1 UNK         0.0784 
     96 H96       -72.8194   25.2295  -75.8348 H         1 UNK         0.3213 
     97 H97       -73.4631   26.1113  -79.1665 H         1 UNK         0.0855 
     98 H98       -73.9203   23.2954  -78.0353 H         1 UNK         0.0814 
     99 H99       -73.0720   23.6523  -79.5351 H         1 UNK         0.0814 
    100 H100      -74.7808   24.0271  -79.3892 H         1 UNK         0.0814 
    101 H101      -75.3254   25.2406  -77.2819 H         1 UNK         0.3105 
    102 H102      -75.3259   27.9620  -75.0047 H         1 UNK         0.0547 
    103 H103      -76.6901   28.8817  -76.8235 H         1 UNK         0.0837 
    104 H104      -77.2505   27.2840  -77.2892 H         1 UNK         0.0837 
    105 H105      -77.7549   27.9818  -75.7550 H         1 UNK         0.0837 
    106 H106      -77.0762   25.8405  -75.0109 H         1 UNK         0.3020 
    107 H107      -75.0595   23.4616  -73.2208 H         1 UNK         0.1245 
    108 H108      -77.2020   23.6287  -71.9124 H         1 UNK         0.0781 
    109 H109      -77.5276   25.1725  -72.6422 H         1 UNK         0.0781 
    110 H110      -76.5710   26.8948  -69.4337 H         1 UNK         0.0836 
    111 H111      -77.8853   26.1039  -70.2579 H         1 UNK         0.0836 
    112 H112      -77.6570   23.5671  -74.5828 H         1 UNK         0.3022 
    113 H113      -76.5924   21.7334  -77.3904 H         1 UNK         0.0747 
    114 H114      -78.3585   20.1064  -76.7491 H         1 UNK         0.0793 
    115 H115      -76.9228   19.8566  -75.7710 H         1 UNK         0.0793 
    116 H116      -78.3159   20.6765  -75.0797 H         1 UNK         0.0793 
    117 H117      -79.1848   22.5358  -76.4989 H         1 UNK         0.3047 
    118 H118      -79.0703   25.9035  -77.6218 H         1 UNK         0.0822 
    119 H119      -80.9637   25.1689  -79.0299 H         1 UNK         0.0807 
    120 H120      -80.4959   23.4786  -78.8388 H         1 UNK         0.0807 
    121 H121      -79.4543   24.5919  -79.7148 H         1 UNK         0.0807 
    122 H122      -81.2562   24.4739  -76.6400 H         1 UNK         0.2946 
    123 H123      -81.9343   24.3178  -74.5592 H         1 UNK         0.1144 
    124 H124      -81.4728   24.0526  -72.1648 H         1 UNK         0.0793 
    125 H125      -79.9370   24.9021  -72.3096 H         1 UNK         0.0793 
    126 H126      -80.1538   23.3331  -73.0718 H         1 UNK         0.0793 
    127 H127      -81.7122   26.5242  -72.8113 H         1 UNK         0.2896 
@<TRIPOS>BOND
     1    1    2 1    
     2    1   67 1    
     3    1   68 1    
     4    1   69 1    
     5    2    3 2    
     6    2    4 am   BACKBONE|DICT|INTERRES
     7    4    5 1    
     8    4   70 1    
     9    5    6 1    
    10    5   65 1    
    11    5   71 1    
    12    6    7 1    
    13    6   72 1    
    14    6   73 1    
    15    7    8 1    
    16    8    9 1    
    17    8   74 1    
    18    8   75 1    
    19    9   10 ar   
    20    9   14 ar   
    21   10   11 ar   
    22   10   76 1    
    23   11   12 ar   
    24   11   48 1    
    25   12   13 ar   
    26   12   77 1    
    27   13   14 ar   
    28   13   15 1    
    29   14   78 1    
    30   15   16 1    
    31   15   79 1    
    32   15   80 1    
    33   16   17 1    
    34   17   18 1    
    35   17   81 1    
    36   17   82 1    
    37   18   19 1    
    38   18   22 1    
    39   18   83 1    
    40   19   20 am   BACKBONE|DICT|INTERRES
    41   19   21 2    
    42   20   84 1    
    43   20   85 1    
    44   22   23 am   BACKBONE|DICT|INTERRES
    45   22   86 1    
    46   23   24 2    
    47   23   25 1    
    48   25   26 1    
    49   25   27 1    
    50   25   87 1    
    51   26   88 1    
    52   26   89 1    
    53   26   90 1    
    54   27   28 am   BACKBONE|DICT|INTERRES
    55   27   91 1    
    56   28   29 2    
    57   28   30 1    
    58   30   31 1    
    59   30   32 1    
    60   30   92 1    
    61   31   93 1    
    62   31   94 1    
    63   31   95 1    
    64   32   33 am   BACKBONE|DICT|INTERRES
    65   32   96 1    
    66   33   34 2    
    67   33   35 1    
    68   35   36 1    
    69   35   37 1    
    70   35   97 1    
    71   36   98 1    
    72   36   99 1    
    73   36  100 1    
    74   37   38 am   BACKBONE|DICT|INTERRES
    75   37  101 1    
    76   38   39 2    
    77   38   40 1    
    78   40   41 1    
    79   40   42 1    
    80   40  102 1    
    81   41  103 1    
    82   41  104 1    
    83   41  105 1    
    84   42   43 am   BACKBONE|DICT|INTERRES
    85   42  106 1    
    86   43   44 2    
    87   43   45 1    
    88   45   46 1    
    89   45   49 1    
    90   45  107 1    
    91   46   47 1    
    92   46  108 1    
    93   46  109 1    
    94   47   48 1    
    95   48  110 1    
    96   48  111 1    
    97   49   50 am   BACKBONE|DICT|INTERRES
    98   49  112 1    
    99   50   51 2    
   100   50   52 1    
   101   52   53 1    
   102   52   54 1    
   103   52  113 1    
   104   53  114 1    
   105   53  115 1    
   106   53  116 1    
   107   54   55 am   BACKBONE|DICT|INTERRES
   108   54  117 1    
   109   55   56 2    
   110   55   57 1    
   111   57   58 1    
   112   57   59 1    
   113   57  118 1    
   114   58  119 1    
   115   58  120 1    
   116   58  121 1    
   117   59   60 am   BACKBONE|DICT|INTERRES
   118   59  122 1    
   119   60   61 2    
   120   60   62 1    
   121   62   63 1    
   122   62   64 1    
   123   62  123 1    
   124   63  124 1    
   125   63  125 1    
   126   63  126 1    
   127   64   65 am   BACKBONE|DICT|INTERRES
   128   64  127 1    
   129   65   66 2    
@<TRIPOS>SUBSTRUCTURE
     1 UNK         1 GROUP             0       ****    0 ROOT    
