@<TRIPOS>MOLECULE
3R135
127   129    1
SMALL
USER_CHARGES


@<TRIPOS>ATOM
      1 CA        -84.7494   25.6711  -73.0774 C.3       0 UNK        -0.1998 
      2 C         -83.2986   26.1072  -72.9445 C.2       0 UNK         0.4909 
      3 O         -82.5328   25.9908  -73.9020 O.2       0 UNK        -0.5240 
      4 N         -82.9101   26.6130  -71.7668 N.am      1 UNK        -0.4739 
      5 CA        -81.5398   27.0374  -71.4634 C.3       1 UNK         0.0864 
      6 C6        -81.4502   27.8604  -70.1562 C.3       11 UNK        -0.0881 
      7 S7        -82.3343   29.4488  -70.3210 S.3       11 UNK        -0.2682 
      8 C8        -80.9657   30.6581  -70.3729 C.3       11 UNK         0.0289 
      9 C9        -79.9155   30.3662  -71.4428 C.ar      11 UNK        -0.0687 
     10 C10       -80.2861   30.0894  -72.7633 C.ar      11 UNK        -0.0823 
     11 C11       -79.3191   29.7988  -73.7311 C.ar      11 UNK        -0.0830 
     12 C12       -77.9659   29.8536  -73.3833 C.ar      11 UNK        -0.1021 
     13 C13       -77.5786   30.1454  -72.0724 C.ar      11 UNK        -0.0753 
     14 C14       -78.5586   30.3907  -71.1060 C.ar      11 UNK        -0.0933 
     15 C15       -76.1038   30.2116  -71.7010 C.3       11 UNK         0.0166 
     16 S16       -75.2653   28.6224  -71.9756 S.3       11 UNK        -0.2615 
     17 C17       -73.6973   28.8993  -71.0847 C.3       11 UNK        -0.0865 
     18 CA        -72.6486   29.7335  -71.8688 C.3       10 UNK         0.0862 
     19 C         -71.3343   29.8312  -71.0401 C.2       10 UNK         0.5551 
     20 N         -70.2811   29.1001  -71.3865 N.am      10 UNK        -0.7319 
     21 O         -71.2769   30.5779  -70.0667 O.2       10 UNK        -0.5018 
     22 N         -72.4724   29.2367  -73.2407 N.am      10 UNK        -0.4509 
     23 C         -71.7442   29.8147  -74.2046 C.2       10 UNK         0.4899 
     24 O         -71.2082   30.9170  -74.0828 O.2       10 UNK        -0.4839 
     25 CA        -71.5913   29.0439  -75.5336 C.3       9 UNK         0.0222 
     26 CB        -70.1465   29.1000  -76.0712 C.3       9 UNK        -0.1966 
     27 N         -72.0765   27.6562  -75.4986 N.am      9 UNK        -0.4218 
     28 C         -71.6281   26.6425  -74.7399 C.2       9 UNK         0.5020 
     29 O         -70.7140   26.7438  -73.9200 O.2       9 UNK        -0.5274 
     30 CA        -72.3522   25.2956  -74.8966 C.3       8 UNK         0.0270 
     31 CB        -73.6499   25.2838  -74.0709 C.3       8 UNK        -0.1976 
     32 N         -72.6591   24.9681  -76.2901 N.am      8 UNK        -0.4313 
     33 C         -71.7444   24.7054  -77.2351 C.2       8 UNK         0.5041 
     34 O         -70.5300   24.6790  -77.0319 O.2       8 UNK        -0.5577 
     35 CA        -72.2757   24.4279  -78.6483 C.3       7 UNK         0.0284 
     36 CB        -72.7720   22.9777  -78.7683 C.3       7 UNK        -0.1958 
     37 N         -73.3543   25.3536  -78.9976 N.am      7 UNK        -0.4454 
     38 C         -73.1581   26.5809  -79.4995 C.2       7 UNK         0.5089 
     39 O         -72.0502   27.0353  -79.7854 O.2       7 UNK        -0.5125 
     40 CA        -74.4048   27.4568  -79.7255 C.3       6 UNK         0.0408 
     41 CB        -74.9065   27.3103  -81.1707 C.3       6 UNK        -0.1791 
     42 N         -75.5046   27.1691  -78.8004 N.am      6 UNK        -0.4762 
     43 C         -75.4764   27.4191  -77.4832 C.2       6 UNK         0.5007 
     44 O         -74.5153   27.9215  -76.9029 O.2       6 UNK        -0.5032 
     45 CA        -76.7101   26.9888  -76.6664 C.3       5 UNK         0.0783 
     46 C46       -77.7757   28.1105  -76.6759 C.3       11 UNK        -0.0857 
     47 S47       -79.2097   27.7450  -75.6052 S.3       11 UNK        -0.2512 
     48 C48       -79.7432   29.4293  -75.1468 C.3       11 UNK         0.0225 
     49 N         -77.2639   25.6974  -77.0944 N.am      5 UNK        -0.4615 
     50 C         -76.5971   24.5373  -77.1668 C.2       4 UNK         0.5053 
     51 O         -75.3878   24.4339  -76.9524 O.2       4 UNK        -0.5105 
     52 CA        -77.4326   23.2939  -77.5148 C.3       4 UNK         0.0263 
     53 CB        -76.5965   22.0016  -77.5368 C.3       4 UNK        -0.1981 
     54 N         -78.5045   23.1474  -76.5334 N.am      4 UNK        -0.4224 
     55 C         -79.7438   23.6351  -76.6496 C.2       3 UNK         0.4895 
     56 O         -80.1669   24.1894  -77.6642 O.2       3 UNK        -0.5091 
     57 CA        -80.6423   23.5421  -75.4058 C.3       3 UNK         0.0250 
     58 CB        -81.0592   22.0896  -75.1005 C.3       3 UNK        -0.1996 
     59 N         -80.0676   24.2135  -74.2308 N.am      3 UNK        -0.4254 
     60 C         -78.9740   23.8869  -73.5204 C.2       2 UNK         0.5004 
     61 O         -78.2930   22.8845  -73.7426 O.2       2 UNK        -0.5226 
     62 CA        -78.5294   24.8438  -72.3965 C.3       2 UNK         0.0269 
     63 CB        -77.1509   25.4463  -72.7115 C.3       2 UNK        -0.1926 
     64 N         -79.4732   25.9381  -72.1613 N.am      2 UNK        -0.4687 
     65 C         -80.5921   25.8260  -71.4360 C.2       1 UNK         0.5165 
     66 O         -80.8973   24.8208  -70.7900 O.2       1 UNK        -0.5079 
     67 H67       -84.8000   24.6109  -73.3237 H         1 UNK         0.0900 
     68 H68       -85.2368   26.2306  -73.8752 H         1 UNK         0.0900 
     69 H69       -85.3098   25.8334  -72.1569 H         1 UNK         0.0900 
     70 H70       -83.5707   26.6826  -71.0062 H         1 UNK         0.2959 
     71 H71       -81.2234   27.6729  -72.2903 H         1 UNK         0.1079 
     72 H72       -81.8779   27.3041  -69.3200 H         1 UNK         0.0837 
     73 H73       -80.4101   28.0554  -69.8872 H         1 UNK         0.0837 
     74 H74       -80.5067   30.6946  -69.3838 H         1 UNK         0.0685 
     75 H75       -81.3823   31.6496  -70.5540 H         1 UNK         0.0685 
     76 H76       -81.3348   30.0738  -73.0278 H         1 UNK         0.1434 
     77 H77       -77.2075   29.6507  -74.1258 H         1 UNK         0.1329 
     78 H78       -78.2630   30.6136  -70.0899 H         1 UNK         0.1335 
     79 H79       -75.9869   30.5043  -70.6573 H         1 UNK         0.0680 
     80 H80       -75.6158   30.9824  -72.2976 H         1 UNK         0.0680 
     81 H81       -73.2883   27.9154  -70.8465 H         1 UNK         0.1032 
     82 H82       -73.9162   29.3670  -70.1227 H         1 UNK         0.1032 
     83 H83       -73.0335   30.7506  -71.9567 H         1 UNK         0.0461 
     84 H84       -70.3327   28.4768  -72.1799 H         1 UNK         0.3453 
     85 H85       -69.4322   29.1660  -70.8484 H         1 UNK         0.3453 
     86 H86       -72.8952   28.3431  -73.4386 H         1 UNK         0.2984 
     87 H87       -72.2296   29.5599  -76.2519 H         1 UNK         0.0554 
     88 H88       -70.0583   28.5755  -77.0228 H         1 UNK         0.0847 
     89 H89       -69.4374   28.6526  -75.3744 H         1 UNK         0.0847 
     90 H90       -69.8289   30.1296  -76.2401 H         1 UNK         0.0847 
     91 H91       -72.8890   27.4892  -76.0893 H         1 UNK         0.3141 
     92 H92       -71.6924   24.5167  -74.5085 H         1 UNK         0.0743 
     93 H93       -74.1411   24.3118  -74.1215 H         1 UNK         0.0784 
     94 H94       -73.4479   25.4908  -73.0190 H         1 UNK         0.0784 
     95 H95       -74.3601   26.0338  -74.4199 H         1 UNK         0.0784 
     96 H96       -73.6441   24.8952  -76.5385 H         1 UNK         0.3213 
     97 H97       -71.4500   24.5580  -79.3518 H         1 UNK         0.0855 
     98 H98       -73.5567   22.7548  -78.0455 H         1 UNK         0.0814 
     99 H99       -71.9579   22.2749  -78.5865 H         1 UNK         0.0814 
    100 H100      -73.1623   22.7709  -79.7649 H         1 UNK         0.0814 
    101 H101      -74.2920   25.0813  -78.7330 H         1 UNK         0.3105 
    102 H102      -74.1050   28.4962  -79.5748 H         1 UNK         0.0547 
    103 H103      -74.1150   27.5453  -81.8838 H         1 UNK         0.0837 
    104 H104      -75.2429   26.2945  -81.3821 H         1 UNK         0.0837 
    105 H105      -75.7346   27.9891  -81.3752 H         1 UNK         0.0837 
    106 H106      -76.3331   26.7425  -79.1903 H         1 UNK         0.3020 
    107 H107      -76.3651   26.8607  -75.6393 H         1 UNK         0.1245 
    108 H108      -78.1464   28.2809  -77.6886 H         1 UNK         0.0781 
    109 H109      -77.3266   29.0525  -76.3566 H         1 UNK         0.0781 
    110 H110      -80.8293   29.4729  -75.2416 H         1 UNK         0.0836 
    111 H111      -79.3530   30.1652  -75.8510 H         1 UNK         0.0836 
    112 H112      -78.2587   25.6861  -77.2755 H         1 UNK         0.3022 
    113 H113      -77.8517   23.4423  -78.5120 H         1 UNK         0.0747 
    114 H114      -77.2174   21.1326  -77.7550 H         1 UNK         0.0793 
    115 H115      -75.8280   22.0488  -78.3085 H         1 UNK         0.0793 
    116 H116      -76.0972   21.8249  -76.5831 H         1 UNK         0.0793 
    117 H117      -78.2382   22.7976  -75.6149 H         1 UNK         0.3047 
    118 H118      -81.5535   24.0952  -75.6395 H         1 UNK         0.0822 
    119 H119      -81.5680   21.6455  -75.9570 H         1 UNK         0.0807 
    120 H120      -81.7485   22.0475  -74.2571 H         1 UNK         0.0807 
    121 H121      -80.2063   21.4521  -74.8670 H         1 UNK         0.0807 
    122 H122      -80.5582   25.0610  -73.9679 H         1 UNK         0.2946 
    123 H123      -78.4396   24.2445  -71.4874 H         1 UNK         0.1144 
    124 H124      -76.4154   24.6676  -72.9168 H         1 UNK         0.0793 
    125 H125      -76.7759   26.0266  -71.8688 H         1 UNK         0.0793 
    126 H126      -77.1871   26.1026  -73.5804 H         1 UNK         0.0793 
    127 H127      -79.2920   26.7994  -72.6595 H         1 UNK         0.2896 
@<TRIPOS>BOND
     1    1    2 1    
     2    1   67 1    
     3    1   68 1    
     4    1   69 1    
     5    2    3 2    
     6    2    4 am   BACKBONE|DICT|INTERRES
     7    4    5 1    
     8    4   70 1    
     9    5    6 1    
    10    5   65 1    
    11    5   71 1    
    12    6    7 1    
    13    6   72 1    
    14    6   73 1    
    15    7    8 1    
    16    8    9 1    
    17    8   74 1    
    18    8   75 1    
    19    9   10 ar   
    20    9   14 ar   
    21   10   11 ar   
    22   10   76 1    
    23   11   12 ar   
    24   11   48 1    
    25   12   13 ar   
    26   12   77 1    
    27   13   14 ar   
    28   13   15 1    
    29   14   78 1    
    30   15   16 1    
    31   15   79 1    
    32   15   80 1    
    33   16   17 1    
    34   17   18 1    
    35   17   81 1    
    36   17   82 1    
    37   18   19 1    
    38   18   22 1    
    39   18   83 1    
    40   19   20 am   BACKBONE|DICT|INTERRES
    41   19   21 2    
    42   20   84 1    
    43   20   85 1    
    44   22   23 am   BACKBONE|DICT|INTERRES
    45   22   86 1    
    46   23   24 2    
    47   23   25 1    
    48   25   26 1    
    49   25   27 1    
    50   25   87 1    
    51   26   88 1    
    52   26   89 1    
    53   26   90 1    
    54   27   28 am   BACKBONE|DICT|INTERRES
    55   27   91 1    
    56   28   29 2    
    57   28   30 1    
    58   30   31 1    
    59   30   32 1    
    60   30   92 1    
    61   31   93 1    
    62   31   94 1    
    63   31   95 1    
    64   32   33 am   BACKBONE|DICT|INTERRES
    65   32   96 1    
    66   33   34 2    
    67   33   35 1    
    68   35   36 1    
    69   35   37 1    
    70   35   97 1    
    71   36   98 1    
    72   36   99 1    
    73   36  100 1    
    74   37   38 am   BACKBONE|DICT|INTERRES
    75   37  101 1    
    76   38   39 2    
    77   38   40 1    
    78   40   41 1    
    79   40   42 1    
    80   40  102 1    
    81   41  103 1    
    82   41  104 1    
    83   41  105 1    
    84   42   43 am   BACKBONE|DICT|INTERRES
    85   42  106 1    
    86   43   44 2    
    87   43   45 1    
    88   45   46 1    
    89   45   49 1    
    90   45  107 1    
    91   46   47 1    
    92   46  108 1    
    93   46  109 1    
    94   47   48 1    
    95   48  110 1    
    96   48  111 1    
    97   49   50 am   BACKBONE|DICT|INTERRES
    98   49  112 1    
    99   50   51 2    
   100   50   52 1    
   101   52   53 1    
   102   52   54 1    
   103   52  113 1    
   104   53  114 1    
   105   53  115 1    
   106   53  116 1    
   107   54   55 am   BACKBONE|DICT|INTERRES
   108   54  117 1    
   109   55   56 2    
   110   55   57 1    
   111   57   58 1    
   112   57   59 1    
   113   57  118 1    
   114   58  119 1    
   115   58  120 1    
   116   58  121 1    
   117   59   60 am   BACKBONE|DICT|INTERRES
   118   59  122 1    
   119   60   61 2    
   120   60   62 1    
   121   62   63 1    
   122   62   64 1    
   123   62  123 1    
   124   63  124 1    
   125   63  125 1    
   126   63  126 1    
   127   64   65 am   BACKBONE|DICT|INTERRES
   128   64  127 1    
   129   65   66 2    
@<TRIPOS>SUBSTRUCTURE
     1 UNK         1 GROUP             0       ****    0 ROOT    
