@<TRIPOS>MOLECULE
3R135
127   129    1
SMALL
USER_CHARGES


@<TRIPOS>ATOM
      1 CA        -84.2322   25.1989  -70.5167 C.3       0 UNK        -0.1998 
      2 C         -83.1999   25.7421  -71.4927 C.2       0 UNK         0.4909 
      3 O         -82.1054   25.1877  -71.5943 O.2       0 UNK        -0.5240 
      4 N         -83.5456   26.8130  -72.2223 N.am      1 UNK        -0.4739 
      5 CA        -82.7314   27.5321  -73.2182 C.3       1 UNK         0.0864 
      6 C6        -81.3824   28.0461  -72.6467 C.3       11 UNK        -0.0881 
      7 S7        -80.8957   29.6637  -73.3325 S.3       11 UNK        -0.2682 
      8 C8        -79.8141   30.2953  -72.0097 C.3       11 UNK         0.0289 
      9 C9        -78.4412   29.6409  -72.0535 C.ar      11 UNK        -0.0687 
     10 C10       -78.2164   28.4207  -71.4078 C.ar      11 UNK        -0.0823 
     11 C11       -76.9661   27.7965  -71.4813 C.ar      11 UNK        -0.0830 
     12 C12       -75.9287   28.4305  -72.1708 C.ar      11 UNK        -0.1021 
     13 C13       -76.1293   29.6649  -72.7931 C.ar      11 UNK        -0.0753 
     14 C14       -77.3926   30.2603  -72.7404 C.ar      11 UNK        -0.0933 
     15 C15       -74.9798   30.3560  -73.5119 C.3       11 UNK         0.0166 
     16 S16       -73.7227   30.9249  -72.3215 S.3       11 UNK        -0.2615 
     17 C17       -72.9183   32.3019  -73.2161 C.3       11 UNK        -0.0865 
     18 CA        -71.5435   31.9491  -73.8414 C.3       10 UNK         0.0862 
     19 C         -70.4382   31.6734  -72.7769 C.2       10 UNK         0.5551 
     20 N         -69.7395   30.5436  -72.8068 N.am      10 UNK        -0.7319 
     21 O         -70.1969   32.5151  -71.9149 O.2       10 UNK        -0.5018 
     22 N         -71.6793   30.9132  -74.8731 N.am      10 UNK        -0.4509 
     23 C         -70.8696   30.7703  -75.9281 C.2       10 UNK         0.4899 
     24 O         -69.9587   31.5528  -76.2046 O.2       10 UNK        -0.4839 
     25 CA        -71.1295   29.5397  -76.8174 C.3       9 UNK         0.0222 
     26 CB        -69.9282   29.1903  -77.7211 C.3       9 UNK        -0.1966 
     27 N         -71.5690   28.3553  -76.0673 N.am      9 UNK        -0.4218 
     28 C         -70.9036   27.7154  -75.0894 C.2       9 UNK         0.5020 
     29 O         -69.8427   28.1189  -74.6105 O.2       9 UNK        -0.5274 
     30 CA        -71.5206   26.4165  -74.5270 C.3       8 UNK         0.0270 
     31 CB        -72.1272   26.6843  -73.1404 C.3       8 UNK        -0.1976 
     32 N         -72.5433   25.8176  -75.3918 N.am      8 UNK        -0.4313 
     33 C         -72.3224   25.3373  -76.6266 C.2       8 UNK         0.5041 
     34 O         -71.1957   25.1855  -77.1005 O.2       8 UNK        -0.5577 
     35 CA        -73.5459   25.0138  -77.5109 C.3       7 UNK         0.0284 
     36 CB        -73.7339   23.4918  -77.6217 C.3       7 UNK        -0.1958 
     37 N         -74.8101   25.6196  -77.0762 N.am      7 UNK        -0.4454 
     38 C         -75.0436   26.9188  -76.8378 C.2       7 UNK         0.5089 
     39 O         -74.2246   27.8129  -77.0533 O.2       7 UNK        -0.5125 
     40 CA        -76.3825   27.2744  -76.1652 C.3       6 UNK         0.0408 
     41 CB        -77.4105   27.7201  -77.2138 C.3       6 UNK        -0.1791 
     42 N         -76.9548   26.1998  -75.3435 N.am      6 UNK        -0.4762 
     43 C         -76.3508   25.5977  -74.3042 C.2       6 UNK         0.5007 
     44 O         -75.1909   25.8232  -73.9562 O.2       6 UNK        -0.5032 
     45 CA        -77.1761   24.5243  -73.5726 C.3       5 UNK         0.0783 
     46 C46       -78.3448   25.1528  -72.7629 C.3       11 UNK        -0.0857 
     47 S47       -78.0451   25.2291  -70.9658 S.3       11 UNK        -0.2512 
     48 C48       -76.6986   26.4542  -70.8046 C.3       11 UNK         0.0225 
     49 N         -77.6517   23.5495  -74.5539 N.am      5 UNK        -0.4615 
     50 C         -76.9129   22.5479  -75.0504 C.2       4 UNK         0.5053 
     51 O         -75.7925   22.2553  -74.6342 O.2       4 UNK        -0.5105 
     52 CA        -77.5119   21.7381  -76.2162 C.3       4 UNK         0.0263 
     53 CB        -78.1566   20.4443  -75.6937 C.3       4 UNK        -0.1981 
     54 N         -78.4998   22.4838  -77.0012 N.am      4 UNK        -0.4224 
     55 C         -78.2287   23.5601  -77.7543 C.2       3 UNK         0.4895 
     56 O         -77.0969   24.0102  -77.9229 O.2       3 UNK        -0.5091 
     57 CA        -79.4326   24.2927  -78.3734 C.3       3 UNK         0.0250 
     58 CB        -79.7662   23.7072  -79.7545 C.3       3 UNK        -0.1996 
     59 N         -80.6313   24.2713  -77.5262 N.am      3 UNK        -0.4254 
     60 C         -80.7026   24.7663  -76.2820 C.2       2 UNK         0.5004 
     61 O         -79.7551   25.3054  -75.7026 O.2       2 UNK        -0.5226 
     62 CA        -82.0258   24.5244  -75.5405 C.3       2 UNK         0.0269 
     63 CB        -82.0622   23.0920  -74.9808 C.3       2 UNK        -0.1926 
     64 N         -82.2197   25.4547  -74.4303 N.am      2 UNK        -0.4687 
     65 C         -82.5443   26.7479  -74.5379 C.2       1 UNK         0.5165 
     66 O         -82.7454   27.3095  -75.6161 O.2       1 UNK        -0.5079 
     67 H67       -84.4799   24.1682  -70.7688 H         1 UNK         0.0900 
     68 H68       -85.1527   25.7823  -70.5284 H         1 UNK         0.0900 
     69 H69       -83.8331   25.2154  -69.5029 H         1 UNK         0.0900 
     70 H70       -84.4773   27.1875  -72.1035 H         1 UNK         0.2959 
     71 H71       -83.3400   28.4017  -73.4733 H         1 UNK         0.1079 
     72 H72       -81.4651   28.1630  -71.5652 H         1 UNK         0.0837 
     73 H73       -80.5793   27.3251  -72.8029 H         1 UNK         0.0837 
     74 H74       -80.2796   30.1424  -71.0349 H         1 UNK         0.0685 
     75 H75       -79.7145   31.3753  -72.1283 H         1 UNK         0.0685 
     76 H76       -79.0214   27.9462  -70.8642 H         1 UNK         0.1434 
     77 H77       -74.9537   27.9670  -72.2171 H         1 UNK         0.1329 
     78 H78       -77.5609   31.2098  -73.2299 H         1 UNK         0.1335 
     79 H79       -74.5235   29.6665  -74.2236 H         1 UNK         0.0680 
     80 H80       -75.3549   31.2003  -74.0919 H         1 UNK         0.0680 
     81 H81       -72.8071   33.1341  -72.5183 H         1 UNK         0.1032 
     82 H82       -73.5861   32.6766  -73.9927 H         1 UNK         0.1032 
     83 H83       -71.2095   32.8564  -74.3487 H         1 UNK         0.0461 
     84 H84       -69.8999   29.8418  -73.5205 H         1 UNK         0.3453 
     85 H85       -69.0258   30.3921  -72.1124 H         1 UNK         0.3453 
     86 H86       -72.3780   30.2069  -74.7004 H         1 UNK         0.2984 
     87 H87       -71.9629   29.8084  -77.4679 H         1 UNK         0.0554 
     88 H88       -70.1440   28.3271  -78.3509 H         1 UNK         0.0847 
     89 H89       -69.0358   28.9634  -77.1366 H         1 UNK         0.0847 
     90 H90       -69.6806   30.0200  -78.3843 H         1 UNK         0.0847 
     91 H91       -72.4679   27.9785  -76.3620 H         1 UNK         0.3141 
     92 H92       -70.7116   25.6917  -74.4169 H         1 UNK         0.0743 
     93 H93       -72.9250   27.4253  -73.1922 H         1 UNK         0.0784 
     94 H94       -72.5400   25.7755  -72.7020 H         1 UNK         0.0784 
     95 H95       -71.3739   27.0655  -72.4494 H         1 UNK         0.0784 
     96 H96       -73.5006   25.8616  -75.0520 H         1 UNK         0.3213 
     97 H97       -73.3296   25.4070  -78.5061 H         1 UNK         0.0855 
     98 H98       -74.0035   23.0499  -76.6618 H         1 UNK         0.0814 
     99 H99       -72.8172   23.0060  -77.9591 H         1 UNK         0.0814 
    100 H100      -74.5138   23.2380  -78.3397 H         1 UNK         0.0814 
    101 H101      -75.5918   24.9828  -76.9587 H         1 UNK         0.3105 
    102 H102      -76.1959   28.1158  -75.4954 H         1 UNK         0.0547 
    103 H103      -77.0555   28.5974  -77.7561 H         1 UNK         0.0837 
    104 H104      -77.5944   26.9379  -77.9493 H         1 UNK         0.0837 
    105 H105      -78.3631   27.9851  -76.7542 H         1 UNK         0.0837 
    106 H106      -77.9144   25.9344  -75.5516 H         1 UNK         0.3020 
    107 H107      -76.5034   24.0076  -72.8837 H         1 UNK         0.1245 
    108 H108      -78.6203   26.1439  -73.1264 H         1 UNK         0.0781 
    109 H109      -79.2516   24.5573  -72.8842 H         1 UNK         0.0781 
    110 H110      -76.5191   26.6331  -69.7439 H         1 UNK         0.0836 
    111 H111      -75.7831   26.0070  -71.1949 H         1 UNK         0.0836 
    112 H112      -78.5382   23.7682  -74.9909 H         1 UNK         0.3022 
    113 H113      -76.6892   21.4689  -76.8823 H         1 UNK         0.0747 
    114 H114      -78.5134   19.8191  -76.5124 H         1 UNK         0.0793 
    115 H115      -77.4371   19.8516  -75.1266 H         1 UNK         0.0793 
    116 H116      -79.0005   20.6505  -75.0339 H         1 UNK         0.0793 
    117 H117      -79.4599   22.1811  -76.9302 H         1 UNK         0.3047 
    118 H118      -79.1490   25.3371  -78.5084 H         1 UNK         0.0822 
    119 H119      -80.5547   24.2763  -80.2475 H         1 UNK         0.0807 
    120 H120      -80.0922   22.6684  -79.6874 H         1 UNK         0.0807 
    121 H121      -78.8940   23.7332  -80.4094 H         1 UNK         0.0807 
    122 H122      -81.4509   23.8326  -77.9218 H         1 UNK         0.2946 
    123 H123      -82.8495   24.6559  -76.2461 H         1 UNK         0.1144 
    124 H124      -83.0026   22.8927  -74.4663 H         1 UNK         0.0793 
    125 H125      -81.2516   22.9155  -74.2719 H         1 UNK         0.0793 
    126 H126      -81.9697   22.3511  -75.7758 H         1 UNK         0.0793 
    127 H127      -82.0534   25.1020  -73.4916 H         1 UNK         0.2896 
@<TRIPOS>BOND
     1    1    2 1    
     2    1   67 1    
     3    1   68 1    
     4    1   69 1    
     5    2    3 2    
     6    2    4 am   BACKBONE|DICT|INTERRES
     7    4    5 1    
     8    4   70 1    
     9    5    6 1    
    10    5   65 1    
    11    5   71 1    
    12    6    7 1    
    13    6   72 1    
    14    6   73 1    
    15    7    8 1    
    16    8    9 1    
    17    8   74 1    
    18    8   75 1    
    19    9   10 ar   
    20    9   14 ar   
    21   10   11 ar   
    22   10   76 1    
    23   11   12 ar   
    24   11   48 1    
    25   12   13 ar   
    26   12   77 1    
    27   13   14 ar   
    28   13   15 1    
    29   14   78 1    
    30   15   16 1    
    31   15   79 1    
    32   15   80 1    
    33   16   17 1    
    34   17   18 1    
    35   17   81 1    
    36   17   82 1    
    37   18   19 1    
    38   18   22 1    
    39   18   83 1    
    40   19   20 am   BACKBONE|DICT|INTERRES
    41   19   21 2    
    42   20   84 1    
    43   20   85 1    
    44   22   23 am   BACKBONE|DICT|INTERRES
    45   22   86 1    
    46   23   24 2    
    47   23   25 1    
    48   25   26 1    
    49   25   27 1    
    50   25   87 1    
    51   26   88 1    
    52   26   89 1    
    53   26   90 1    
    54   27   28 am   BACKBONE|DICT|INTERRES
    55   27   91 1    
    56   28   29 2    
    57   28   30 1    
    58   30   31 1    
    59   30   32 1    
    60   30   92 1    
    61   31   93 1    
    62   31   94 1    
    63   31   95 1    
    64   32   33 am   BACKBONE|DICT|INTERRES
    65   32   96 1    
    66   33   34 2    
    67   33   35 1    
    68   35   36 1    
    69   35   37 1    
    70   35   97 1    
    71   36   98 1    
    72   36   99 1    
    73   36  100 1    
    74   37   38 am   BACKBONE|DICT|INTERRES
    75   37  101 1    
    76   38   39 2    
    77   38   40 1    
    78   40   41 1    
    79   40   42 1    
    80   40  102 1    
    81   41  103 1    
    82   41  104 1    
    83   41  105 1    
    84   42   43 am   BACKBONE|DICT|INTERRES
    85   42  106 1    
    86   43   44 2    
    87   43   45 1    
    88   45   46 1    
    89   45   49 1    
    90   45  107 1    
    91   46   47 1    
    92   46  108 1    
    93   46  109 1    
    94   47   48 1    
    95   48  110 1    
    96   48  111 1    
    97   49   50 am   BACKBONE|DICT|INTERRES
    98   49  112 1    
    99   50   51 2    
   100   50   52 1    
   101   52   53 1    
   102   52   54 1    
   103   52  113 1    
   104   53  114 1    
   105   53  115 1    
   106   53  116 1    
   107   54   55 am   BACKBONE|DICT|INTERRES
   108   54  117 1    
   109   55   56 2    
   110   55   57 1    
   111   57   58 1    
   112   57   59 1    
   113   57  118 1    
   114   58  119 1    
   115   58  120 1    
   116   58  121 1    
   117   59   60 am   BACKBONE|DICT|INTERRES
   118   59  122 1    
   119   60   61 2    
   120   60   62 1    
   121   62   63 1    
   122   62   64 1    
   123   62  123 1    
   124   63  124 1    
   125   63  125 1    
   126   63  126 1    
   127   64   65 am   BACKBONE|DICT|INTERRES
   128   64  127 1    
   129   65   66 2    
@<TRIPOS>SUBSTRUCTURE
     1 UNK         1 GROUP             0       ****    0 ROOT    
