@<TRIPOS>MOLECULE
3R135
127   129    1
SMALL
USER_CHARGES


@<TRIPOS>ATOM
      1 CA        -79.2380   28.3995  -78.6317 C.3       0 UNK        -0.1998 
      2 C         -79.3157   27.9434  -77.1832 C.2       0 UNK         0.4909 
      3 O         -78.4360   27.2128  -76.7265 O.2       0 UNK        -0.5240 
      4 N         -80.3389   28.3938  -76.4491 N.am      1 UNK        -0.4739 
      5 CA        -80.6102   27.9863  -75.0669 C.3       1 UNK         0.0864 
      6 C6        -81.4805   29.0273  -74.3220 C.3       11 UNK        -0.0881 
      7 S7        -80.6327   30.6305  -74.1264 S.3       11 UNK        -0.2682 
      8 C8        -80.2634   30.6542  -72.3438 C.3       11 UNK         0.0289 
      9 C9        -79.0408   29.8199  -71.9790 C.ar      11 UNK        -0.0687 
     10 C10       -79.1770   28.4711  -71.6361 C.ar      11 UNK        -0.0823 
     11 C11       -78.0695   27.7292  -71.2138 C.ar      11 UNK        -0.0830 
     12 C12       -76.8219   28.3562  -71.1229 C.ar      11 UNK        -0.1021 
     13 C13       -76.6623   29.7051  -71.4670 C.ar      11 UNK        -0.0753 
     14 C14       -77.7801   30.4218  -71.9076 C.ar      11 UNK        -0.0933 
     15 C15       -75.3314   30.4525  -71.3220 C.3       11 UNK         0.0166 
     16 S16       -73.8756   29.4355  -70.8768 S.3       11 UNK        -0.2615 
     17 C17       -73.5328   28.6015  -72.4597 C.3       11 UNK        -0.0865 
     18 CA        -72.0151   28.4446  -72.7397 C.3       10 UNK         0.0862 
     19 C         -71.4450   27.1221  -72.1638 C.2       10 UNK         0.5551 
     20 N         -71.8173   25.9735  -72.7164 N.am      10 UNK        -0.7319 
     21 O         -70.6545   27.1373  -71.2234 O.2       10 UNK        -0.5018 
     22 N         -71.7327   28.5957  -74.1704 N.am      10 UNK        -0.4509 
     23 C         -70.5375   28.8654  -74.7081 C.2       10 UNK         0.4899 
     24 O         -69.5114   29.0509  -74.0536 O.2       10 UNK        -0.4839 
     25 CA        -70.4817   28.9708  -76.2400 C.3       9 UNK         0.0222 
     26 CB        -70.3098   27.5754  -76.8631 C.3       9 UNK        -0.1966 
     27 N         -71.6956   29.5932  -76.7759 N.am      9 UNK        -0.4218 
     28 C         -71.8136   30.8797  -77.1312 C.2       9 UNK         0.5020 
     29 O         -70.8861   31.6894  -77.0876 O.2       9 UNK        -0.5274 
     30 CA        -73.1890   31.3539  -77.6434 C.3       8 UNK         0.0270 
     31 CB        -73.2322   31.3033  -79.1796 C.3       8 UNK        -0.1976 
     32 N         -74.3193   30.5897  -77.1077 N.am      8 UNK        -0.4313 
     33 C         -74.7663   30.6725  -75.8470 C.2       8 UNK         0.5041 
     34 O         -74.3068   31.4491  -75.0098 O.2       8 UNK        -0.5577 
     35 CA        -75.9097   29.7208  -75.4388 C.3       7 UNK         0.0284 
     36 CB        -77.2630   30.4108  -75.6511 C.3       7 UNK        -0.1958 
     37 N         -75.9270   28.3978  -76.0848 N.am      7 UNK        -0.4454 
     38 C         -74.8894   27.5650  -76.2406 C.2       7 UNK         0.5089 
     39 O         -73.7306   27.8450  -75.9373 O.2       7 UNK        -0.5125 
     40 CA        -75.2106   26.1784  -76.8187 C.3       6 UNK         0.0408 
     41 CB        -73.9555   25.4601  -77.3575 C.3       6 UNK        -0.1791 
     42 N         -75.9065   25.3322  -75.8455 N.am      6 UNK        -0.4762 
     43 C         -75.4915   24.9804  -74.6158 C.2       6 UNK         0.5007 
     44 O         -74.4302   25.3446  -74.1061 O.2       6 UNK        -0.5032 
     45 CA        -76.4115   24.0124  -73.8460 C.3       5 UNK         0.0783 
     46 C46       -77.4985   24.7671  -73.0379 C.3       11 UNK        -0.0857 
     47 S47       -76.9317   25.1619  -71.3540 S.3       11 UNK        -0.2512 
     48 C48       -78.2448   26.2818  -70.7618 C.3       11 UNK         0.0225 
     49 N         -76.9867   23.0006  -74.7431 N.am      5 UNK        -0.4615 
     50 C         -76.2969   21.9524  -75.2209 C.2       4 UNK         0.5053 
     51 O         -75.1310   21.7167  -74.8997 O.2       4 UNK        -0.5105 
     52 CA        -76.9856   21.0227  -76.2443 C.3       4 UNK         0.0263 
     53 CB        -76.5607   19.5469  -76.0800 C.3       4 UNK        -0.1981 
     54 N         -78.4469   21.1462  -76.3026 N.am      4 UNK        -0.4224 
     55 C         -79.3349   20.8412  -75.3457 C.2       3 UNK         0.4895 
     56 O         -79.0486   20.3723  -74.2424 O.2       3 UNK        -0.5091 
     57 CA        -80.8040   21.1595  -75.6786 C.3       3 UNK         0.0250 
     58 CB        -81.6914   19.9154  -75.5018 C.3       3 UNK        -0.1996 
     59 N         -81.3420   22.2576  -74.8690 N.am      3 UNK        -0.4254 
     60 C         -80.7970   23.4753  -74.7355 C.2       2 UNK         0.5004 
     61 O         -79.7375   23.8186  -75.2695 O.2       2 UNK        -0.5226 
     62 CA        -81.5645   24.4648  -73.8388 C.3       2 UNK         0.0269 
     63 CB        -81.4842   24.0570  -72.3567 C.3       2 UNK        -0.1926 
     64 N         -81.0590   25.8325  -73.9870 N.am      2 UNK        -0.4687 
     65 C         -81.3003   26.6086  -75.0517 C.2       1 UNK         0.5165 
     66 O         -82.0658   26.2930  -75.9677 O.2       1 UNK        -0.5079 
     67 H67       -78.3016   28.9275  -78.8092 H         1 UNK         0.0900 
     68 H68       -80.0590   29.0667  -78.8934 H         1 UNK         0.0900 
     69 H69       -79.2752   27.5373  -79.2969 H         1 UNK         0.0900 
     70 H70       -81.0387   28.9845  -76.8742 H         1 UNK         0.2959 
     71 H71       -79.6566   27.8921  -74.5417 H         1 UNK         0.1079 
     72 H72       -82.4128   29.2014  -74.8630 H         1 UNK         0.0837 
     73 H73       -81.7772   28.6576  -73.3391 H         1 UNK         0.0837 
     74 H74       -80.0981   31.6904  -72.0448 H         1 UNK         0.0685 
     75 H75       -81.1349   30.3215  -71.7781 H         1 UNK         0.0685 
     76 H76       -80.1550   28.0117  -71.6586 H         1 UNK         0.1434 
     77 H77       -75.9843   27.7840  -70.7529 H         1 UNK         0.1329 
     78 H78       -77.6762   31.4687  -72.1589 H         1 UNK         0.1335 
     79 H79       -75.1175   31.0011  -72.2408 H         1 UNK         0.0680 
     80 H80       -75.4551   31.2059  -70.5430 H         1 UNK         0.0680 
     81 H81       -73.9700   29.2159  -73.2427 H         1 UNK         0.1032 
     82 H82       -74.0678   27.6504  -72.5047 H         1 UNK         0.1032 
     83 H83       -71.4934   29.2659  -72.2436 H         1 UNK         0.0461 
     84 H84       -71.4448   25.1117  -72.3523 H         1 UNK         0.3453 
     85 H85       -72.5322   25.9449  -73.4345 H         1 UNK         0.3453 
     86 H86       -72.5030   28.3760  -74.7991 H         1 UNK         0.2984 
     87 H87       -69.6068   29.5678  -76.5056 H         1 UNK         0.0554 
     88 H88       -70.2277   27.6337  -77.9485 H         1 UNK         0.0847 
     89 H89       -71.1472   26.9182  -76.6255 H         1 UNK         0.0847 
     90 H90       -69.4032   27.0933  -76.4948 H         1 UNK         0.0847 
     91 H91       -72.5315   29.0150  -76.7623 H         1 UNK         0.3141 
     92 H92       -73.3092   32.3949  -77.3355 H         1 UNK         0.0743 
     93 H93       -72.4203   31.8903  -79.6118 H         1 UNK         0.0784 
     94 H94       -73.1315   30.2838  -79.5542 H         1 UNK         0.0784 
     95 H95       -74.1658   31.7138  -79.5649 H         1 UNK         0.0784 
     96 H96       -74.7620   29.9271  -77.7276 H         1 UNK         0.3213 
     97 H97       -75.8155   29.5378  -74.3693 H         1 UNK         0.0855 
     98 H98       -77.2873   31.3898  -75.1701 H         1 UNK         0.0814 
     99 H99       -78.0663   29.8232  -75.2110 H         1 UNK         0.0814 
    100 H100      -77.4858   30.5575  -76.7083 H         1 UNK         0.0814 
    101 H101      -76.8450   28.0274  -76.3281 H         1 UNK         0.3105 
    102 H102      -75.8930   26.3271  -77.6569 H         1 UNK         0.0547 
    103 H103      -73.4555   26.0646  -78.1151 H         1 UNK         0.0837 
    104 H104      -73.2278   25.2624  -76.5697 H         1 UNK         0.0837 
    105 H105      -74.2127   24.5072  -77.8196 H         1 UNK         0.0837 
    106 H106      -76.8211   25.0115  -76.1340 H         1 UNK         0.3020 
    107 H107      -75.7734   23.4750  -73.1398 H         1 UNK         0.1245 
    108 H108      -78.3763   24.1332  -72.9223 H         1 UNK         0.0781 
    109 H109      -77.8415   25.6708  -73.5469 H         1 UNK         0.0781 
    110 H110      -78.2390   26.2670  -69.6712 H         1 UNK         0.0836 
    111 H111      -79.2160   25.8897  -71.0646 H         1 UNK         0.0836 
    112 H112      -77.9486   23.1493  -75.0386 H         1 UNK         0.3022 
    113 H113      -76.6259   21.3537  -77.2197 H         1 UNK         0.0747 
    114 H114      -77.0424   18.9096  -76.8214 H         1 UNK         0.0793 
    115 H115      -75.4838   19.4314  -76.2091 H         1 UNK         0.0793 
    116 H116      -76.8102   19.1605  -75.0914 H         1 UNK         0.0793 
    117 H117      -78.8032   21.5660  -77.1507 H         1 UNK         0.3047 
    118 H118      -80.8685   21.4689  -76.7239 H         1 UNK         0.0822 
    119 H119      -82.7155   20.1072  -75.8226 H         1 UNK         0.0807 
    120 H120      -81.7207   19.5840  -74.4628 H         1 UNK         0.0807 
    121 H121      -81.3176   19.0819  -76.0983 H         1 UNK         0.0807 
    122 H122      -82.1965   22.0582  -74.3696 H         1 UNK         0.2946 
    123 H123      -82.6131   24.4503  -74.1460 H         1 UNK         0.1144 
    124 H124      -81.9396   23.0797  -72.1920 H         1 UNK         0.0793 
    125 H125      -82.0160   24.7656  -71.7214 H         1 UNK         0.0793 
    126 H126      -80.4570   23.9945  -72.0004 H         1 UNK         0.0793 
    127 H127      -80.4025   26.1459  -73.2896 H         1 UNK         0.2896 
@<TRIPOS>BOND
     1    1    2 1    
     2    1   67 1    
     3    1   68 1    
     4    1   69 1    
     5    2    3 2    
     6    2    4 am   BACKBONE|DICT|INTERRES
     7    4    5 1    
     8    4   70 1    
     9    5    6 1    
    10    5   65 1    
    11    5   71 1    
    12    6    7 1    
    13    6   72 1    
    14    6   73 1    
    15    7    8 1    
    16    8    9 1    
    17    8   74 1    
    18    8   75 1    
    19    9   10 ar   
    20    9   14 ar   
    21   10   11 ar   
    22   10   76 1    
    23   11   12 ar   
    24   11   48 1    
    25   12   13 ar   
    26   12   77 1    
    27   13   14 ar   
    28   13   15 1    
    29   14   78 1    
    30   15   16 1    
    31   15   79 1    
    32   15   80 1    
    33   16   17 1    
    34   17   18 1    
    35   17   81 1    
    36   17   82 1    
    37   18   19 1    
    38   18   22 1    
    39   18   83 1    
    40   19   20 am   BACKBONE|DICT|INTERRES
    41   19   21 2    
    42   20   84 1    
    43   20   85 1    
    44   22   23 am   BACKBONE|DICT|INTERRES
    45   22   86 1    
    46   23   24 2    
    47   23   25 1    
    48   25   26 1    
    49   25   27 1    
    50   25   87 1    
    51   26   88 1    
    52   26   89 1    
    53   26   90 1    
    54   27   28 am   BACKBONE|DICT|INTERRES
    55   27   91 1    
    56   28   29 2    
    57   28   30 1    
    58   30   31 1    
    59   30   32 1    
    60   30   92 1    
    61   31   93 1    
    62   31   94 1    
    63   31   95 1    
    64   32   33 am   BACKBONE|DICT|INTERRES
    65   32   96 1    
    66   33   34 2    
    67   33   35 1    
    68   35   36 1    
    69   35   37 1    
    70   35   97 1    
    71   36   98 1    
    72   36   99 1    
    73   36  100 1    
    74   37   38 am   BACKBONE|DICT|INTERRES
    75   37  101 1    
    76   38   39 2    
    77   38   40 1    
    78   40   41 1    
    79   40   42 1    
    80   40  102 1    
    81   41  103 1    
    82   41  104 1    
    83   41  105 1    
    84   42   43 am   BACKBONE|DICT|INTERRES
    85   42  106 1    
    86   43   44 2    
    87   43   45 1    
    88   45   46 1    
    89   45   49 1    
    90   45  107 1    
    91   46   47 1    
    92   46  108 1    
    93   46  109 1    
    94   47   48 1    
    95   48  110 1    
    96   48  111 1    
    97   49   50 am   BACKBONE|DICT|INTERRES
    98   49  112 1    
    99   50   51 2    
   100   50   52 1    
   101   52   53 1    
   102   52   54 1    
   103   52  113 1    
   104   53  114 1    
   105   53  115 1    
   106   53  116 1    
   107   54   55 am   BACKBONE|DICT|INTERRES
   108   54  117 1    
   109   55   56 2    
   110   55   57 1    
   111   57   58 1    
   112   57   59 1    
   113   57  118 1    
   114   58  119 1    
   115   58  120 1    
   116   58  121 1    
   117   59   60 am   BACKBONE|DICT|INTERRES
   118   59  122 1    
   119   60   61 2    
   120   60   62 1    
   121   62   63 1    
   122   62   64 1    
   123   62  123 1    
   124   63  124 1    
   125   63  125 1    
   126   63  126 1    
   127   64   65 am   BACKBONE|DICT|INTERRES
   128   64  127 1    
   129   65   66 2    
@<TRIPOS>SUBSTRUCTURE
     1 UNK         1 GROUP             0       ****    0 ROOT    
