@<TRIPOS>MOLECULE
3R135
127   129    1
SMALL
USER_CHARGES


@<TRIPOS>ATOM
      1 CA        -85.5777   28.9693  -76.0096 C.3       0 UNK        -0.1998 
      2 C         -84.1195   28.6967  -76.3469 C.2       0 UNK         0.4909 
      3 O         -83.7427   28.7497  -77.5180 O.2       0 UNK        -0.5240 
      4 N         -83.2975   28.4089  -75.3286 N.am      1 UNK        -0.4739 
      5 CA        -81.8656   28.1059  -75.4611 C.3       1 UNK         0.0864 
      6 C6        -81.1472   28.1644  -74.0881 C.3       11 UNK        -0.0881 
      7 S7        -80.8382   29.8972  -73.6096 S.3       11 UNK        -0.2682 
      8 C8        -80.3401   29.7480  -71.8644 C.3       11 UNK         0.0289 
      9 C9        -78.9205   29.2201  -71.6895 C.ar      11 UNK        -0.0687 
     10 C10       -78.7009   28.0059  -71.0307 C.ar      11 UNK        -0.0823 
     11 C11       -77.3996   27.5477  -70.8063 C.ar      11 UNK        -0.0830 
     12 C12       -76.3201   28.3016  -71.2644 C.ar      11 UNK        -0.1021 
     13 C13       -76.5156   29.5039  -71.9458 C.ar      11 UNK        -0.0753 
     14 C14       -77.8233   29.9648  -72.1427 C.ar      11 UNK        -0.0933 
     15 C15       -75.3259   30.2752  -72.5133 C.3       11 UNK         0.0166 
     16 S16       -74.1129   30.8020  -71.2582 S.3       11 UNK        -0.2615 
     17 C17       -72.8870   29.4391  -71.2483 C.3       11 UNK        -0.0865 
     18 CA        -71.7026   29.6728  -72.2243 C.3       10 UNK         0.0862 
     19 C         -70.4676   28.7882  -71.8722 C.2       10 UNK         0.5551 
     20 N         -69.8297   28.1071  -72.8177 N.am      10 UNK        -0.7319 
     21 O         -70.0647   28.7294  -70.7131 O.2       10 UNK        -0.5018 
     22 N         -72.1366   29.5286  -73.6231 N.am      10 UNK        -0.4509 
     23 C         -71.6902   30.2742  -74.6400 C.2       10 UNK         0.4899 
     24 O         -70.9128   31.2210  -74.5060 O.2       10 UNK        -0.4839 
     25 CA        -72.1932   29.8825  -76.0436 C.3       9 UNK         0.0222 
     26 CB        -71.4356   30.6069  -77.1762 C.3       9 UNK        -0.1966 
     27 N         -72.2015   28.4333  -76.2844 N.am      9 UNK        -0.4218 
     28 C         -71.1656   27.5822  -76.1962 C.2       9 UNK         0.5020 
     29 O         -70.0400   27.9222  -75.8292 O.2       9 UNK        -0.5274 
     30 CA        -71.4052   26.0967  -76.5433 C.3       8 UNK         0.0270 
     31 CB        -71.1149   25.2077  -75.3217 C.3       8 UNK        -0.1976 
     32 N         -72.7571   25.8043  -77.0249 N.am      8 UNK        -0.4313 
     33 C         -73.2433   26.1088  -78.2358 C.2       8 UNK         0.5041 
     34 O         -72.5673   26.5834  -79.1485 O.2       8 UNK        -0.5577 
     35 CA        -74.7602   25.9183  -78.4287 C.3       7 UNK         0.0284 
     36 CB        -75.0879   24.4894  -78.8910 C.3       7 UNK        -0.1958 
     37 N         -75.5140   26.2446  -77.2101 N.am      7 UNK        -0.4454 
     38 C         -75.5821   27.4774  -76.6854 C.2       7 UNK         0.5089 
     39 O         -75.0977   28.4715  -77.2247 O.2       7 UNK        -0.5125 
     40 CA        -76.2237   27.6297  -75.3017 C.3       6 UNK         0.0408 
     41 CB        -77.7214   27.9179  -75.4100 C.3       6 UNK        -0.1791 
     42 N         -75.9914   26.4657  -74.4449 N.am      6 UNK        -0.4762 
     43 C         -74.8591   26.2603  -73.7534 C.2       6 UNK         0.5007 
     44 O         -73.9307   27.0718  -73.7172 O.2       6 UNK        -0.5032 
     45 CA        -74.6992   24.9026  -73.0297 C.3       5 UNK         0.0783 
     46 C46       -75.0569   24.9689  -71.5218 C.3       11 UNK        -0.0857 
     47 S47       -76.8501   24.8547  -71.1682 S.3       11 UNK        -0.2512 
     48 C48       -77.1512   26.2540  -70.0467 C.3       11 UNK         0.0225 
     49 N         -75.4018   23.8061  -73.7018 N.am      5 UNK        -0.4615 
     50 C         -75.1445   23.3624  -74.9360 C.2       4 UNK         0.5053 
     51 O         -74.2160   23.7840  -75.6230 O.2       4 UNK        -0.5105 
     52 CA        -76.1026   22.3104  -75.5238 C.3       4 UNK         0.0263 
     53 CB        -75.4869   20.9075  -75.4075 C.3       4 UNK        -0.1981 
     54 N         -77.4479   22.3019  -74.9316 N.am      4 UNK        -0.4224 
     55 C         -78.3148   23.3251  -74.9559 C.2       3 UNK         0.4895 
     56 O         -78.0467   24.4381  -75.4143 O.2       3 UNK        -0.5091 
     57 CA        -79.6840   23.0680  -74.3019 C.3       3 UNK         0.0250 
     58 CB        -79.6507   23.4327  -72.8107 C.3       3 UNK        -0.1996 
     59 N         -80.7587   23.8265  -74.9415 N.am      3 UNK        -0.4254 
     60 C         -81.2785   23.5558  -76.1457 C.2       2 UNK         0.5004 
     61 O         -80.9171   22.6112  -76.8493 O.2       2 UNK        -0.5226 
     62 CA        -82.4191   24.4663  -76.6415 C.3       2 UNK         0.0269 
     63 CB        -83.7769   23.7626  -76.4802 C.3       2 UNK        -0.1926 
     64 N         -82.4810   25.7741  -75.9770 N.am      2 UNK        -0.4687 
     65 C         -81.6052   26.7681  -76.1857 C.2       1 UNK         0.5165 
     66 O         -80.6377   26.6694  -76.9398 O.2       1 UNK        -0.5079 
     67 H67       -86.2207   28.2524  -76.5194 H         1 UNK         0.0900 
     68 H68       -85.7698   28.8962  -74.9393 H         1 UNK         0.0900 
     69 H69       -85.8572   29.9706  -76.3362 H         1 UNK         0.0900 
     70 H70       -83.6608   28.4076  -74.3861 H         1 UNK         0.2959 
     71 H71       -81.4295   28.8706  -76.1090 H         1 UNK         0.1079 
     72 H72       -81.7400   27.6701  -73.3164 H         1 UNK         0.0837 
     73 H73       -80.1946   27.6375  -74.1060 H         1 UNK         0.0837 
     74 H74       -80.4010   30.7347  -71.4032 H         1 UNK         0.0685 
     75 H75       -81.0619   29.1229  -71.3365 H         1 UNK         0.0685 
     76 H76       -79.5413   27.4272  -70.6725 H         1 UNK         0.1434 
     77 H77       -75.3238   27.9392  -71.0903 H         1 UNK         0.1329 
     78 H78       -77.9941   30.8985  -72.6610 H         1 UNK         0.1335 
     79 H79       -74.8205   29.6656  -73.2580 H         1 UNK         0.0680 
     80 H80       -75.6728   31.1657  -73.0392 H         1 UNK         0.0680 
     81 H81       -72.5313   29.3634  -70.2191 H         1 UNK         0.1032 
     82 H82       -73.3507   28.4808  -71.4685 H         1 UNK         0.1032 
     83 H83       -71.3602   30.6973  -72.0669 H         1 UNK         0.0461 
     84 H84       -69.0302   27.5505  -72.5615 H         1 UNK         0.3453 
     85 H85       -70.0984   28.1781  -73.7919 H         1 UNK         0.3453 
     86 H86       -72.7411   28.7360  -73.8163 H         1 UNK         0.2984 
     87 H87       -73.2348   30.2034  -76.0883 H         1 UNK         0.0554 
     88 H88       -71.5208   31.6897  -77.0760 H         1 UNK         0.0847 
     89 H89       -71.8375   30.3413  -78.1540 H         1 UNK         0.0847 
     90 H90       -70.3729   30.3617  -77.1722 H         1 UNK         0.0847 
     91 H91       -73.0931   28.0621  -76.5886 H         1 UNK         0.3141 
     92 H92       -70.6993   25.8329  -77.3333 H         1 UNK         0.0743 
     93 H93       -71.7555   25.4642  -74.4780 H         1 UNK         0.0784 
     94 H94       -71.2667   24.1526  -75.5508 H         1 UNK         0.0784 
     95 H95       -70.0818   25.3210  -74.9904 H         1 UNK         0.0784 
     96 H96       -73.3700   25.3098  -76.3805 H         1 UNK         0.3213 
     97 H97       -75.0828   26.6079  -79.2121 H         1 UNK         0.0855 
     98 H98       -74.7290   23.7379  -78.1886 H         1 UNK         0.0814 
     99 H99       -74.6169   24.2794  -79.8522 H         1 UNK         0.0814 
    100 H100      -76.1611   24.3473  -79.0191 H         1 UNK         0.0814 
    101 H101      -75.9367   25.4801  -76.7022 H         1 UNK         0.3105 
    102 H102      -75.7676   28.5047  -74.8424 H         1 UNK         0.0547 
    103 H103      -77.9198   28.7432  -76.0950 H         1 UNK         0.0837 
    104 H104      -78.2789   27.0522  -75.7653 H         1 UNK         0.0837 
    105 H105      -78.1114   28.2075  -74.4367 H         1 UNK         0.0837 
    106 H106      -76.7030   25.7423  -74.4570 H         1 UNK         0.3020 
    107 H107      -73.6339   24.6695  -73.0920 H         1 UNK         0.1245 
    108 H108      -74.6189   25.8489  -71.0515 H         1 UNK         0.0781 
    109 H109      -74.5888   24.1230  -71.0160 H         1 UNK         0.0781 
    110 H110      -76.3125   26.3702  -69.3585 H         1 UNK         0.0836 
    111 H111      -78.0163   26.0174  -69.4254 H         1 UNK         0.0836 
    112 H112      -76.1908   23.4227  -73.2019 H         1 UNK         0.3022 
    113 H113      -76.2195   22.5432  -76.5839 H         1 UNK         0.0747 
    114 H114      -76.0983   20.1611  -75.9151 H         1 UNK         0.0793 
    115 H115      -74.4969   20.8764  -75.8653 H         1 UNK         0.0793 
    116 H116      -75.3742   20.6007  -74.3668 H         1 UNK         0.0793 
    117 H117      -77.7432   21.4316  -74.5120 H         1 UNK         0.3047 
    118 H118      -79.9198   22.0054  -74.3939 H         1 UNK         0.0822 
    119 H119      -78.8838   22.8639  -72.2837 H         1 UNK         0.0807 
    120 H120      -80.6018   23.2117  -72.3260 H         1 UNK         0.0807 
    121 H121      -79.4374   24.4921  -72.6610 H         1 UNK         0.0807 
    122 H122      -81.0996   24.6382  -74.4500 H         1 UNK         0.2946 
    123 H123      -82.2476   24.6353  -77.7074 H         1 UNK         0.1144 
    124 H124      -84.5853   24.3562  -76.9076 H         1 UNK         0.0793 
    125 H125      -84.0132   23.5759  -75.4318 H         1 UNK         0.0793 
    126 H126      -83.7810   22.7988  -76.9915 H         1 UNK         0.0793 
    127 H127      -83.2634   25.9418  -75.3608 H         1 UNK         0.2896 
@<TRIPOS>BOND
     1    1    2 1    
     2    1   67 1    
     3    1   68 1    
     4    1   69 1    
     5    2    3 2    
     6    2    4 am   BACKBONE|DICT|INTERRES
     7    4    5 1    
     8    4   70 1    
     9    5    6 1    
    10    5   65 1    
    11    5   71 1    
    12    6    7 1    
    13    6   72 1    
    14    6   73 1    
    15    7    8 1    
    16    8    9 1    
    17    8   74 1    
    18    8   75 1    
    19    9   10 ar   
    20    9   14 ar   
    21   10   11 ar   
    22   10   76 1    
    23   11   12 ar   
    24   11   48 1    
    25   12   13 ar   
    26   12   77 1    
    27   13   14 ar   
    28   13   15 1    
    29   14   78 1    
    30   15   16 1    
    31   15   79 1    
    32   15   80 1    
    33   16   17 1    
    34   17   18 1    
    35   17   81 1    
    36   17   82 1    
    37   18   19 1    
    38   18   22 1    
    39   18   83 1    
    40   19   20 am   BACKBONE|DICT|INTERRES
    41   19   21 2    
    42   20   84 1    
    43   20   85 1    
    44   22   23 am   BACKBONE|DICT|INTERRES
    45   22   86 1    
    46   23   24 2    
    47   23   25 1    
    48   25   26 1    
    49   25   27 1    
    50   25   87 1    
    51   26   88 1    
    52   26   89 1    
    53   26   90 1    
    54   27   28 am   BACKBONE|DICT|INTERRES
    55   27   91 1    
    56   28   29 2    
    57   28   30 1    
    58   30   31 1    
    59   30   32 1    
    60   30   92 1    
    61   31   93 1    
    62   31   94 1    
    63   31   95 1    
    64   32   33 am   BACKBONE|DICT|INTERRES
    65   32   96 1    
    66   33   34 2    
    67   33   35 1    
    68   35   36 1    
    69   35   37 1    
    70   35   97 1    
    71   36   98 1    
    72   36   99 1    
    73   36  100 1    
    74   37   38 am   BACKBONE|DICT|INTERRES
    75   37  101 1    
    76   38   39 2    
    77   38   40 1    
    78   40   41 1    
    79   40   42 1    
    80   40  102 1    
    81   41  103 1    
    82   41  104 1    
    83   41  105 1    
    84   42   43 am   BACKBONE|DICT|INTERRES
    85   42  106 1    
    86   43   44 2    
    87   43   45 1    
    88   45   46 1    
    89   45   49 1    
    90   45  107 1    
    91   46   47 1    
    92   46  108 1    
    93   46  109 1    
    94   47   48 1    
    95   48  110 1    
    96   48  111 1    
    97   49   50 am   BACKBONE|DICT|INTERRES
    98   49  112 1    
    99   50   51 2    
   100   50   52 1    
   101   52   53 1    
   102   52   54 1    
   103   52  113 1    
   104   53  114 1    
   105   53  115 1    
   106   53  116 1    
   107   54   55 am   BACKBONE|DICT|INTERRES
   108   54  117 1    
   109   55   56 2    
   110   55   57 1    
   111   57   58 1    
   112   57   59 1    
   113   57  118 1    
   114   58  119 1    
   115   58  120 1    
   116   58  121 1    
   117   59   60 am   BACKBONE|DICT|INTERRES
   118   59  122 1    
   119   60   61 2    
   120   60   62 1    
   121   62   63 1    
   122   62   64 1    
   123   62  123 1    
   124   63  124 1    
   125   63  125 1    
   126   63  126 1    
   127   64   65 am   BACKBONE|DICT|INTERRES
   128   64  127 1    
   129   65   66 2    
@<TRIPOS>SUBSTRUCTURE
     1 UNK         1 GROUP             0       ****    0 ROOT    
