@<TRIPOS>MOLECULE
3R135
127   129    1
SMALL
USER_CHARGES


@<TRIPOS>ATOM
      1 CA        -75.7283   21.1141  -72.6353 C.3       0 UNK        -0.1998 
      2 C         -76.9764   21.5026  -71.8563 C.2       0 UNK         0.4909 
      3 O         -77.7079   20.6280  -71.3901 O.2       0 UNK        -0.5240 
      4 N         -77.2170   22.8100  -71.7066 N.am      1 UNK        -0.4739 
      5 CA        -78.4157   23.3867  -71.0909 C.3       1 UNK         0.0864 
      6 C6        -78.1319   24.8224  -70.5779 C.3       11 UNK        -0.0881 
      7 S7        -77.6764   26.0064  -71.8930 S.3       11 UNK        -0.2682 
      8 C8        -78.9407   27.2905  -71.6506 C.3       11 UNK         0.0289 
      9 C9        -78.7542   28.4476  -72.6193 C.ar      11 UNK        -0.0687 
     10 C10       -79.7304   28.7339  -73.5773 C.ar      11 UNK        -0.0823 
     11 C11       -79.5637   29.8028  -74.4639 C.ar      11 UNK        -0.0830 
     12 C12       -78.4112   30.5912  -74.3853 C.ar      11 UNK        -0.1021 
     13 C13       -77.4250   30.3066  -73.4366 C.ar      11 UNK        -0.0753 
     14 C14       -77.6059   29.2416  -72.5508 C.ar      11 UNK        -0.0933 
     15 C15       -76.1579   31.1402  -73.3702 C.3       11 UNK         0.0166 
     16 S16       -74.8276   30.3715  -74.3397 S.3       11 UNK        -0.2615 
     17 C17       -73.5047   31.5962  -74.0654 C.3       11 UNK        -0.0865 
     18 CA        -72.0968   31.0848  -74.4865 C.3       10 UNK         0.0862 
     19 C         -71.0120   32.2038  -74.4188 C.2       10 UNK         0.5551 
     20 N         -69.7597   31.8917  -74.1073 N.am      10 UNK        -0.7319 
     21 O         -71.2983   33.3692  -74.6831 O.2       10 UNK        -0.5018 
     22 N         -71.7118   29.8188  -73.8355 N.am      10 UNK        -0.4509 
     23 C         -71.5436   29.5969  -72.5266 C.2       10 UNK         0.4899 
     24 O         -71.7352   30.4476  -71.6563 O.2       10 UNK        -0.4839 
     25 CA        -71.0629   28.1820  -72.1320 C.3       9 UNK         0.0222 
     26 CB        -70.8273   28.0407  -70.6160 C.3       9 UNK        -0.1966 
     27 N         -71.9668   27.1113  -72.5704 N.am      9 UNK        -0.4218 
     28 C         -72.1395   26.6886  -73.8303 C.2       9 UNK         0.5020 
     29 O         -71.5468   27.1898  -74.7901 O.2       9 UNK        -0.5274 
     30 CA        -73.1275   25.5196  -74.0429 C.3       8 UNK         0.0270 
     31 CB        -74.3640   25.6156  -73.1293 C.3       8 UNK        -0.1976 
     32 N         -73.5877   25.4634  -75.4293 N.am      8 UNK        -0.4313 
     33 C         -72.9062   24.9520  -76.4643 C.2       8 UNK         0.5041 
     34 O         -71.8791   24.2808  -76.3506 O.2       8 UNK        -0.5577 
     35 CA        -73.4458   25.2736  -77.8681 C.3       7 UNK         0.0284 
     36 CB        -74.4460   24.2066  -78.3403 C.3       7 UNK        -0.1958 
     37 N         -74.0834   26.5923  -77.8885 N.am      7 UNK        -0.4454 
     38 C         -73.4481   27.7445  -78.1421 C.2       7 UNK         0.5089 
     39 O         -72.2812   27.8009  -78.5325 O.2       7 UNK        -0.5125 
     40 CA        -74.2096   29.0653  -77.8924 C.3       6 UNK         0.0408 
     41 CB        -74.2013   29.9787  -79.1353 C.3       6 UNK        -0.1791 
     42 N         -75.5668   28.9097  -77.3468 N.am      6 UNK        -0.4762 
     43 C         -76.6459   28.3961  -77.9553 C.2       6 UNK         0.5007 
     44 O         -76.6601   28.0039  -79.1233 O.2       6 UNK        -0.5032 
     45 CA        -77.9090   28.2296  -77.0905 C.3       5 UNK         0.0783 
     46 C46       -79.0900   29.0540  -77.6673 C.3       11 UNK        -0.0857 
     47 S47       -80.6713   28.7916  -76.7906 S.3       11 UNK        -0.2512 
     48 C48       -80.6241   30.0903  -75.5157 C.3       11 UNK         0.0225 
     49 N         -78.2371   26.8128  -76.9312 N.am      5 UNK        -0.4615 
     50 C         -77.4750   25.8869  -76.3406 C.2       4 UNK         0.5053 
     51 O         -76.3473   26.1285  -75.9025 O.2       4 UNK        -0.5105 
     52 CA        -78.0514   24.4547  -76.2435 C.3       4 UNK         0.0263 
     53 CB        -77.2149   23.5629  -75.3069 C.3       4 UNK        -0.1981 
     54 N         -79.4632   24.3938  -75.8272 N.am      4 UNK        -0.4224 
     55 C         -80.5168   24.7349  -76.5876 C.2       3 UNK         0.4895 
     56 O         -80.3965   25.1633  -77.7366 O.2       3 UNK        -0.5091 
     57 CA        -81.9390   24.5832  -76.0134 C.3       3 UNK         0.0250 
     58 CB        -82.8229   23.7481  -76.9576 C.3       3 UNK        -0.1996 
     59 N         -81.9783   23.9710  -74.6855 N.am      3 UNK        -0.4254 
     60 C         -82.0132   24.6339  -73.5228 C.2       2 UNK         0.5004 
     61 O         -81.9805   25.8607  -73.4284 O.2       2 UNK        -0.5226 
     62 CA        -82.0956   23.7844  -72.2371 C.3       2 UNK         0.0269 
     63 CB        -82.6590   22.3617  -72.4614 C.3       2 UNK        -0.1926 
     64 N         -80.8106   23.7182  -71.5293 N.am      2 UNK        -0.4687 
     65 C         -79.6351   23.3219  -72.0409 C.2       1 UNK         0.5165 
     66 O         -79.4989   22.9404  -73.2068 O.2       1 UNK        -0.5079 
     67 H67       -76.0026   20.5269  -73.5113 H         1 UNK         0.0900 
     68 H68       -75.1711   21.9871  -72.9751 H         1 UNK         0.0900 
     69 H69       -75.0682   20.5112  -72.0123 H         1 UNK         0.0900 
     70 H70       -76.5965   23.4843  -72.1292 H         1 UNK         0.2959 
     71 H71       -78.6694   22.7719  -70.2242 H         1 UNK         0.1079 
     72 H72       -77.3094   24.7939  -69.8614 H         1 UNK         0.0837 
     73 H73       -78.9842   25.2031  -70.0128 H         1 UNK         0.0837 
     74 H74       -79.9293   26.8434  -71.7662 H         1 UNK         0.0685 
     75 H75       -78.8833   27.6683  -70.6288 H         1 UNK         0.0685 
     76 H76       -80.6183   28.1195  -73.6435 H         1 UNK         0.1434 
     77 H77       -78.2714   31.4141  -75.0732 H         1 UNK         0.1329 
     78 H78       -76.8434   29.0172  -71.8173 H         1 UNK         0.1335 
     79 H79       -76.3462   32.1477  -73.7446 H         1 UNK         0.0680 
     80 H80       -75.8375   31.2479  -72.3326 H         1 UNK         0.0680 
     81 H81       -73.5004   31.8941  -73.0158 H         1 UNK         0.1032 
     82 H82       -73.7701   32.4912  -74.6311 H         1 UNK         0.1032 
     83 H83       -72.1572   30.8410  -75.5474 H         1 UNK         0.0461 
     84 H84       -69.5084   30.9378  -73.9042 H         1 UNK         0.3453 
     85 H85       -69.0614   32.6178  -74.0761 H         1 UNK         0.3453 
     86 H86       -71.5584   29.0264  -74.4550 H         1 UNK         0.2984 
     87 H87       -70.1003   28.0301  -72.6249 H         1 UNK         0.0554 
     88 H88       -70.1174   28.7881  -70.2588 H         1 UNK         0.0847 
     89 H89       -70.4143   27.0632  -70.3662 H         1 UNK         0.0847 
     90 H90       -71.7501   28.1714  -70.0494 H         1 UNK         0.0847 
     91 H91       -72.5176   26.6731  -71.8468 H         1 UNK         0.3141 
     92 H92       -72.5971   24.5938  -73.8112 H         1 UNK         0.0743 
     93 H93       -75.0821   24.8296  -73.3608 H         1 UNK         0.0784 
     94 H94       -74.1050   25.5024  -72.0764 H         1 UNK         0.0784 
     95 H95       -74.8777   26.5717  -73.2466 H         1 UNK         0.0784 
     96 H96       -74.4651   25.9390  -75.6209 H         1 UNK         0.3213 
     97 H97       -72.5987   25.2666  -78.5577 H         1 UNK         0.0855 
     98 H98       -75.3326   24.1711  -77.7101 H         1 UNK         0.0814 
     99 H99       -73.9932   23.2143  -78.3238 H         1 UNK         0.0814 
    100 H100      -74.7719   24.3974  -79.3629 H         1 UNK         0.0814 
    101 H101      -75.0358   26.6430  -77.5491 H         1 UNK         0.3105 
    102 H102      -73.6460   29.5798  -77.1134 H         1 UNK         0.0547 
    103 H103      -73.1804   30.2190  -79.4347 H         1 UNK         0.0837 
    104 H104      -74.6834   29.5081  -79.9922 H         1 UNK         0.0837 
    105 H105      -74.7094   30.9225  -78.9383 H         1 UNK         0.0837 
    106 H106      -75.6504   29.1697  -76.3709 H         1 UNK         0.3020 
    107 H107      -77.6856   28.6012  -76.0902 H         1 UNK         0.1245 
    108 H108      -78.8504   30.1189  -77.6611 H         1 UNK         0.0781 
    109 H109      -79.2605   28.7907  -78.7131 H         1 UNK         0.0781 
    110 H110      -81.6006   30.1451  -75.0325 H         1 UNK         0.0836 
    111 H111      -80.4619   31.0611  -75.9868 H         1 UNK         0.0836 
    112 H112      -79.1310   26.5133  -77.3089 H         1 UNK         0.3022 
    113 H113      -77.9829   24.0279  -77.2460 H         1 UNK         0.0747 
    114 H114      -76.1761   23.4971  -75.6303 H         1 UNK         0.0793 
    115 H115      -77.2125   23.9603  -74.2928 H         1 UNK         0.0793 
    116 H116      -77.6053   22.5459  -75.2685 H         1 UNK         0.0793 
    117 H117      -79.6335   24.0365  -74.8914 H         1 UNK         0.3047 
    118 H118      -82.3624   25.5889  -75.9606 H         1 UNK         0.0822 
    119 H119      -83.8430   23.6708  -76.5809 H         1 UNK         0.0807 
    120 H120      -82.4342   22.7371  -77.0857 H         1 UNK         0.0807 
    121 H121      -82.8821   24.2025  -77.9477 H         1 UNK         0.0807 
    122 H122      -81.9518   22.9616  -74.6534 H         1 UNK         0.2946 
    123 H123      -82.7904   24.3094  -71.5790 H         1 UNK         0.1144 
    124 H124      -83.6165   22.3943  -72.9834 H         1 UNK         0.0793 
    125 H125      -82.8341   21.8599  -71.5097 H         1 UNK         0.0793 
    126 H126      -81.9845   21.7310  -73.0414 H         1 UNK         0.0793 
    127 H127      -80.8306   24.0428  -70.5726 H         1 UNK         0.2896 
@<TRIPOS>BOND
     1    1    2 1    
     2    1   67 1    
     3    1   68 1    
     4    1   69 1    
     5    2    3 2    
     6    2    4 am   BACKBONE|DICT|INTERRES
     7    4    5 1    
     8    4   70 1    
     9    5    6 1    
    10    5   65 1    
    11    5   71 1    
    12    6    7 1    
    13    6   72 1    
    14    6   73 1    
    15    7    8 1    
    16    8    9 1    
    17    8   74 1    
    18    8   75 1    
    19    9   10 ar   
    20    9   14 ar   
    21   10   11 ar   
    22   10   76 1    
    23   11   12 ar   
    24   11   48 1    
    25   12   13 ar   
    26   12   77 1    
    27   13   14 ar   
    28   13   15 1    
    29   14   78 1    
    30   15   16 1    
    31   15   79 1    
    32   15   80 1    
    33   16   17 1    
    34   17   18 1    
    35   17   81 1    
    36   17   82 1    
    37   18   19 1    
    38   18   22 1    
    39   18   83 1    
    40   19   20 am   BACKBONE|DICT|INTERRES
    41   19   21 2    
    42   20   84 1    
    43   20   85 1    
    44   22   23 am   BACKBONE|DICT|INTERRES
    45   22   86 1    
    46   23   24 2    
    47   23   25 1    
    48   25   26 1    
    49   25   27 1    
    50   25   87 1    
    51   26   88 1    
    52   26   89 1    
    53   26   90 1    
    54   27   28 am   BACKBONE|DICT|INTERRES
    55   27   91 1    
    56   28   29 2    
    57   28   30 1    
    58   30   31 1    
    59   30   32 1    
    60   30   92 1    
    61   31   93 1    
    62   31   94 1    
    63   31   95 1    
    64   32   33 am   BACKBONE|DICT|INTERRES
    65   32   96 1    
    66   33   34 2    
    67   33   35 1    
    68   35   36 1    
    69   35   37 1    
    70   35   97 1    
    71   36   98 1    
    72   36   99 1    
    73   36  100 1    
    74   37   38 am   BACKBONE|DICT|INTERRES
    75   37  101 1    
    76   38   39 2    
    77   38   40 1    
    78   40   41 1    
    79   40   42 1    
    80   40  102 1    
    81   41  103 1    
    82   41  104 1    
    83   41  105 1    
    84   42   43 am   BACKBONE|DICT|INTERRES
    85   42  106 1    
    86   43   44 2    
    87   43   45 1    
    88   45   46 1    
    89   45   49 1    
    90   45  107 1    
    91   46   47 1    
    92   46  108 1    
    93   46  109 1    
    94   47   48 1    
    95   48  110 1    
    96   48  111 1    
    97   49   50 am   BACKBONE|DICT|INTERRES
    98   49  112 1    
    99   50   51 2    
   100   50   52 1    
   101   52   53 1    
   102   52   54 1    
   103   52  113 1    
   104   53  114 1    
   105   53  115 1    
   106   53  116 1    
   107   54   55 am   BACKBONE|DICT|INTERRES
   108   54  117 1    
   109   55   56 2    
   110   55   57 1    
   111   57   58 1    
   112   57   59 1    
   113   57  118 1    
   114   58  119 1    
   115   58  120 1    
   116   58  121 1    
   117   59   60 am   BACKBONE|DICT|INTERRES
   118   59  122 1    
   119   60   61 2    
   120   60   62 1    
   121   62   63 1    
   122   62   64 1    
   123   62  123 1    
   124   63  124 1    
   125   63  125 1    
   126   63  126 1    
   127   64   65 am   BACKBONE|DICT|INTERRES
   128   64  127 1    
   129   65   66 2    
@<TRIPOS>SUBSTRUCTURE
     1 UNK         1 GROUP             0       ****    0 ROOT    
