@<TRIPOS>MOLECULE
3R135
127   129    1
SMALL
USER_CHARGES


@<TRIPOS>ATOM
      1 CA        -83.7836   23.6371  -73.1591 C.3       0 UNK        -0.1998 
      2 C         -82.6668   24.6684  -73.1203 C.2       0 UNK         0.4909 
      3 O         -81.5241   24.3372  -73.4375 O.2       0 UNK        -0.5240 
      4 N         -82.9890   25.9148  -72.7417 N.am      1 UNK        -0.4739 
      5 CA        -82.0678   27.0588  -72.6548 C.3       1 UNK         0.0864 
      6 C6        -81.0602   26.9107  -71.4677 C.3       11 UNK        -0.0881 
      7 S7        -80.9748   28.3697  -70.3699 S.3       11 UNK        -0.2682 
      8 C8        -80.1659   29.6667  -71.3753 C.3       11 UNK         0.0289 
      9 C9        -78.7509   29.3626  -71.8706 C.ar      11 UNK        -0.0687 
     10 C10       -77.9353   28.3857  -71.2876 C.ar      11 UNK        -0.0823 
     11 C11       -76.6778   28.0975  -71.8229 C.ar      11 UNK        -0.0830 
     12 C12       -76.2188   28.8110  -72.9332 C.ar      11 UNK        -0.1021 
     13 C13       -77.0000   29.8237  -73.5036 C.ar      11 UNK        -0.0753 
     14 C14       -78.2609   30.0890  -72.9608 C.ar      11 UNK        -0.0933 
     15 C15       -76.5655   30.6050  -74.7446 C.3       11 UNK         0.0166 
     16 S16       -74.7761   30.6115  -75.0936 S.3       11 UNK        -0.2615 
     17 C17       -74.1467   31.7988  -73.8560 C.3       11 UNK        -0.0865 
     18 CA        -72.8515   31.3282  -73.1411 C.3       10 UNK         0.0862 
     19 C         -73.1385   30.3388  -71.9720 C.2       10 UNK         0.5551 
     20 N         -72.6761   29.0944  -72.0145 N.am      10 UNK        -0.7319 
     21 O         -73.7703   30.7228  -70.9912 O.2       10 UNK        -0.5018 
     22 N         -71.8323   30.8792  -74.1026 N.am      10 UNK        -0.4509 
     23 C         -70.5251   30.7747  -73.8394 C.2       10 UNK         0.4899 
     24 O         -70.0094   31.1803  -72.7962 O.2       10 UNK        -0.4839 
     25 CA        -69.6447   30.1097  -74.9198 C.3       9 UNK         0.0222 
     26 CB        -68.3613   29.4946  -74.3218 C.3       9 UNK        -0.1966 
     27 N         -70.3257   29.1123  -75.7622 N.am      9 UNK        -0.4218 
     28 C         -70.9937   28.0199  -75.3613 C.2       9 UNK         0.5020 
     29 O         -71.2773   27.7689  -74.1880 O.2       9 UNK        -0.5274 
     30 CA        -71.3892   27.0246  -76.4628 C.3       8 UNK         0.0270 
     31 CB        -70.9109   25.6032  -76.1210 C.3       8 UNK        -0.1976 
     32 N         -72.8344   27.0124  -76.6828 N.am      8 UNK        -0.4313 
     33 C         -73.4980   27.9585  -77.3643 C.2       8 UNK         0.5041 
     34 O         -72.9436   28.9561  -77.8314 O.2       8 UNK        -0.5577 
     35 CA        -75.0179   27.7589  -77.5810 C.3       7 UNK         0.0284 
     36 CB        -75.5469   28.5112  -78.8186 C.3       7 UNK        -0.1958 
     37 N         -75.4454   26.3556  -77.6199 N.am      7 UNK        -0.4454 
     38 C         -74.9730   25.3628  -78.3905 C.2       7 UNK         0.5089 
     39 O         -74.1630   25.5255  -79.3045 O.2       7 UNK        -0.5125 
     40 CA        -75.4631   23.9388  -78.0410 C.3       6 UNK         0.0408 
     41 CB        -74.4527   22.8493  -78.4548 C.3       6 UNK        -0.1791 
     42 N         -75.8344   23.7824  -76.6260 N.am      6 UNK        -0.4762 
     43 C         -75.0678   24.0241  -75.5475 C.2       6 UNK         0.5007 
     44 O         -73.8816   24.3444  -75.6216 O.2       6 UNK        -0.5032 
     45 CA        -75.7376   23.9804  -74.1577 C.3       5 UNK         0.0783 
     46 C46       -75.6792   25.3783  -73.4917 C.3       11 UNK        -0.0857 
     47 S47       -76.3199   25.3554  -71.7846 S.3       11 UNK        -0.2512 
     48 C48       -75.8216   27.0052  -71.2018 C.3       11 UNK         0.0225 
     49 N         -77.1153   23.4896  -74.2328 N.am      5 UNK        -0.4615 
     50 C         -77.4827   22.2050  -74.1825 C.2       4 UNK         0.5053 
     51 O         -76.6956   21.2708  -74.0307 O.2       4 UNK        -0.5105 
     52 CA        -78.9851   21.9142  -74.3433 C.3       4 UNK         0.0263 
     53 CB        -79.6461   21.7449  -72.9662 C.3       4 UNK        -0.1981 
     54 N         -79.6962   22.9500  -75.1036 N.am      4 UNK        -0.4224 
     55 C         -79.5243   23.1697  -76.4158 C.2       3 UNK         0.4895 
     56 O         -78.7484   22.5232  -77.1200 O.2       3 UNK        -0.5091 
     57 CA        -80.3161   24.3265  -77.0449 C.3       3 UNK         0.0250 
     58 CB        -81.7960   23.9471  -77.2159 C.3       3 UNK        -0.1996 
     59 N         -80.2171   25.5836  -76.3012 N.am      3 UNK        -0.4254 
     60 C         -79.0918   26.2582  -76.0336 C.2       2 UNK         0.5004 
     61 O         -77.9661   25.8682  -76.3396 O.2       2 UNK        -0.5226 
     62 CA        -79.2277   27.5875  -75.2763 C.3       2 UNK         0.0269 
     63 CB        -79.6091   28.7406  -76.2244 C.3       2 UNK        -0.1926 
     64 N         -80.1046   27.5148  -74.0998 N.am      2 UNK        -0.4687 
     65 C         -81.4313   27.3340  -74.0418 C.2       1 UNK         0.5165 
     66 O         -82.1543   27.3202  -75.0414 O.2       1 UNK        -0.5079 
     67 H67       -83.9044   23.2544  -74.1720 H         1 UNK         0.0900 
     68 H68       -83.5410   22.8000  -72.5053 H         1 UNK         0.0900 
     69 H69       -84.7370   24.0552  -72.8370 H         1 UNK         0.0900 
     70 H70       -83.9542   26.1265  -72.5299 H         1 UNK         0.2959 
     71 H71       -82.7074   27.9211  -72.4602 H         1 UNK         0.1079 
     72 H72       -80.0631   26.5861  -71.7644 H         1 UNK         0.0837 
     73 H73       -81.3949   26.1036  -70.8137 H         1 UNK         0.0837 
     74 H74       -80.1257   30.5789  -70.7788 H         1 UNK         0.0685 
     75 H75       -80.8122   29.8886  -72.2259 H         1 UNK         0.0685 
     76 H76       -78.2789   27.8256  -70.4294 H         1 UNK         0.1434 
     77 H77       -75.2526   28.5652  -73.3497 H         1 UNK         0.1329 
     78 H78       -78.8822   30.8506  -73.4127 H         1 UNK         0.1335 
     79 H79       -77.0695   30.1729  -75.6092 H         1 UNK         0.0680 
     80 H80       -76.9090   31.6384  -74.6750 H         1 UNK         0.0680 
     81 H81       -74.9273   32.0346  -73.1297 H         1 UNK         0.1032 
     82 H82       -73.9467   32.7356  -74.3781 H         1 UNK         0.1032 
     83 H83       -72.4407   32.2142  -72.6528 H         1 UNK         0.0461 
     84 H84       -72.8415   28.4844  -71.2320 H         1 UNK         0.3453 
     85 H85       -72.1512   28.7545  -72.8163 H         1 UNK         0.3453 
     86 H86       -72.1870   30.5045  -74.9711 H         1 UNK         0.2984 
     87 H87       -69.3419   30.9142  -75.5913 H         1 UNK         0.0554 
     88 H88       -67.7289   29.0611  -75.0965 H         1 UNK         0.0847 
     89 H89       -68.5916   28.7105  -73.5994 H         1 UNK         0.0847 
     90 H90       -67.7639   30.2476  -73.8063 H         1 UNK         0.0847 
     91 H91       -70.2208   29.2494  -76.7589 H         1 UNK         0.3141 
     92 H92       -70.9018   27.3143  -77.3964 H         1 UNK         0.0743 
     93 H93       -69.8274   25.5754  -75.9992 H         1 UNK         0.0784 
     94 H94       -71.1692   24.8969  -76.9104 H         1 UNK         0.0784 
     95 H95       -71.3518   25.2398  -75.1917 H         1 UNK         0.0784 
     96 H96       -73.3379   26.2083  -76.3219 H         1 UNK         0.3213 
     97 H97       -75.5027   28.1889  -76.7039 H         1 UNK         0.0855 
     98 H98       -75.0706   28.1611  -79.7349 H         1 UNK         0.0814 
     99 H99       -75.3549   29.5819  -78.7379 H         1 UNK         0.0814 
    100 H100      -76.6239   28.3849  -78.9287 H         1 UNK         0.0814 
    101 H101      -76.1873   26.1054  -76.9687 H         1 UNK         0.3105 
    102 H102      -76.3785   23.7822  -78.6133 H         1 UNK         0.0547 
    103 H103      -74.8195   21.8536  -78.2063 H         1 UNK         0.0837 
    104 H104      -73.4886   22.9849  -77.9634 H         1 UNK         0.0837 
    105 H105      -74.2743   22.8678  -79.5305 H         1 UNK         0.0837 
    106 H106      -76.8094   23.5588  -76.4655 H         1 UNK         0.3020 
    107 H107      -75.1455   23.2906  -73.5516 H         1 UNK         0.1245 
    108 H108      -76.2511   26.1056  -74.0708 H         1 UNK         0.0781 
    109 H109      -74.6516   25.7471  -73.4601 H         1 UNK         0.0781 
    110 H110      -74.7655   27.1686  -71.4186 H         1 UNK         0.0836 
    111 H111      -75.9165   27.0401  -70.1155 H         1 UNK         0.0836 
    112 H112      -77.8304   24.1894  -74.3670 H         1 UNK         0.3022 
    113 H113      -79.0812   20.9717  -74.8864 H         1 UNK         0.0747 
    114 H114      -80.7018   21.4901  -73.0611 H         1 UNK         0.0793 
    115 H115      -79.1682   20.9455  -72.3983 H         1 UNK         0.0793 
    116 H116      -79.5745   22.6565  -72.3711 H         1 UNK         0.0793 
    117 H117      -80.3550   23.5279  -74.5808 H         1 UNK         0.3047 
    118 H118      -79.8955   24.5064  -78.0365 H         1 UNK         0.0822 
    119 H119      -82.3416   24.7173  -77.7613 H         1 UNK         0.0807 
    120 H120      -82.2908   23.8047  -76.2545 H         1 UNK         0.0807 
    121 H121      -81.8994   23.0179  -77.7781 H         1 UNK         0.0807 
    122 H122      -81.0861   25.9999  -75.9799 H         1 UNK         0.2946 
    123 H123      -78.2336   27.8039  -74.8856 H         1 UNK         0.1144 
    124 H124      -79.6618   29.6904  -75.6930 H         1 UNK         0.0793 
    125 H125      -80.5709   28.5751  -76.7099 H         1 UNK         0.0793 
    126 H126      -78.8658   28.8511  -77.0151 H         1 UNK         0.0793 
    127 H127      -79.6077   27.5218  -73.2194 H         1 UNK         0.2896 
@<TRIPOS>BOND
     1    1    2 1    
     2    1   67 1    
     3    1   68 1    
     4    1   69 1    
     5    2    3 2    
     6    2    4 am   BACKBONE|DICT|INTERRES
     7    4    5 1    
     8    4   70 1    
     9    5    6 1    
    10    5   65 1    
    11    5   71 1    
    12    6    7 1    
    13    6   72 1    
    14    6   73 1    
    15    7    8 1    
    16    8    9 1    
    17    8   74 1    
    18    8   75 1    
    19    9   10 ar   
    20    9   14 ar   
    21   10   11 ar   
    22   10   76 1    
    23   11   12 ar   
    24   11   48 1    
    25   12   13 ar   
    26   12   77 1    
    27   13   14 ar   
    28   13   15 1    
    29   14   78 1    
    30   15   16 1    
    31   15   79 1    
    32   15   80 1    
    33   16   17 1    
    34   17   18 1    
    35   17   81 1    
    36   17   82 1    
    37   18   19 1    
    38   18   22 1    
    39   18   83 1    
    40   19   20 am   BACKBONE|DICT|INTERRES
    41   19   21 2    
    42   20   84 1    
    43   20   85 1    
    44   22   23 am   BACKBONE|DICT|INTERRES
    45   22   86 1    
    46   23   24 2    
    47   23   25 1    
    48   25   26 1    
    49   25   27 1    
    50   25   87 1    
    51   26   88 1    
    52   26   89 1    
    53   26   90 1    
    54   27   28 am   BACKBONE|DICT|INTERRES
    55   27   91 1    
    56   28   29 2    
    57   28   30 1    
    58   30   31 1    
    59   30   32 1    
    60   30   92 1    
    61   31   93 1    
    62   31   94 1    
    63   31   95 1    
    64   32   33 am   BACKBONE|DICT|INTERRES
    65   32   96 1    
    66   33   34 2    
    67   33   35 1    
    68   35   36 1    
    69   35   37 1    
    70   35   97 1    
    71   36   98 1    
    72   36   99 1    
    73   36  100 1    
    74   37   38 am   BACKBONE|DICT|INTERRES
    75   37  101 1    
    76   38   39 2    
    77   38   40 1    
    78   40   41 1    
    79   40   42 1    
    80   40  102 1    
    81   41  103 1    
    82   41  104 1    
    83   41  105 1    
    84   42   43 am   BACKBONE|DICT|INTERRES
    85   42  106 1    
    86   43   44 2    
    87   43   45 1    
    88   45   46 1    
    89   45   49 1    
    90   45  107 1    
    91   46   47 1    
    92   46  108 1    
    93   46  109 1    
    94   47   48 1    
    95   48  110 1    
    96   48  111 1    
    97   49   50 am   BACKBONE|DICT|INTERRES
    98   49  112 1    
    99   50   51 2    
   100   50   52 1    
   101   52   53 1    
   102   52   54 1    
   103   52  113 1    
   104   53  114 1    
   105   53  115 1    
   106   53  116 1    
   107   54   55 am   BACKBONE|DICT|INTERRES
   108   54  117 1    
   109   55   56 2    
   110   55   57 1    
   111   57   58 1    
   112   57   59 1    
   113   57  118 1    
   114   58  119 1    
   115   58  120 1    
   116   58  121 1    
   117   59   60 am   BACKBONE|DICT|INTERRES
   118   59  122 1    
   119   60   61 2    
   120   60   62 1    
   121   62   63 1    
   122   62   64 1    
   123   62  123 1    
   124   63  124 1    
   125   63  125 1    
   126   63  126 1    
   127   64   65 am   BACKBONE|DICT|INTERRES
   128   64  127 1    
   129   65   66 2    
@<TRIPOS>SUBSTRUCTURE
     1 UNK         1 GROUP             0       ****    0 ROOT    
