@<TRIPOS>MOLECULE
3R135
127   129    1
SMALL
USER_CHARGES


@<TRIPOS>ATOM
      1 CA        -80.0391   21.3241  -72.1597 C.3       0 UNK        -0.1998 
      2 C         -80.5123   22.7432  -72.4337 C.2       0 UNK         0.4909 
      3 O         -79.8491   23.4626  -73.1798 O.2       0 UNK        -0.5240 
      4 N         -81.6521   23.1321  -71.8396 N.am      1 UNK        -0.4739 
      5 CA        -82.3268   24.4379  -71.9346 C.3       1 UNK         0.0864 
      6 C6        -81.8200   25.4752  -70.8838 C.3       11 UNK        -0.0881 
      7 S7        -80.0831   26.0190  -71.0672 S.3       11 UNK        -0.2682 
      8 C8        -80.2021   27.8223  -70.8334 C.3       11 UNK         0.0289 
      9 C9        -79.0490   28.5602  -71.5041 C.ar      11 UNK        -0.0687 
     10 C10       -79.3111   29.5615  -72.4449 C.ar      11 UNK        -0.0823 
     11 C11       -78.2648   30.2596  -73.0566 C.ar      11 UNK        -0.0830 
     12 C12       -76.9443   29.9389  -72.7267 C.ar      11 UNK        -0.1021 
     13 C13       -76.6661   28.9293  -71.8006 C.ar      11 UNK        -0.0753 
     14 C14       -77.7222   28.2564  -71.1796 C.ar      11 UNK        -0.0933 
     15 C15       -75.2250   28.5479  -71.5002 C.3       11 UNK         0.0166 
     16 S16       -74.3343   29.8996  -70.6683 S.3       11 UNK        -0.2615 
     17 C17       -72.6313   29.2423  -70.6309 C.3       11 UNK        -0.0865 
     18 CA        -71.7529   29.7972  -71.7851 C.3       10 UNK         0.0862 
     19 C         -70.2478   29.4563  -71.5661 C.2       10 UNK         0.5551 
     20 N         -69.5703   28.7619  -72.4736 N.am      10 UNK        -0.7319 
     21 O         -69.6785   29.8398  -70.5473 O.2       10 UNK        -0.5018 
     22 N         -72.2785   29.3886  -73.0956 N.am      10 UNK        -0.4509 
     23 C         -72.0652   30.0219  -74.2547 C.2       10 UNK         0.4899 
     24 O         -71.4653   31.0934  -74.3516 O.2       10 UNK        -0.4839 
     25 CA        -72.6145   29.3203  -75.5146 C.3       9 UNK         0.0222 
     26 CB        -71.9170   29.7817  -76.8110 C.3       9 UNK        -0.1966 
     27 N         -72.6053   27.8526  -75.4155 N.am      9 UNK        -0.4218 
     28 C         -71.5407   27.0619  -75.2045 C.2       9 UNK         0.5020 
     29 O         -70.3917   27.4807  -75.0593 O.2       9 UNK        -0.5274 
     30 CA        -71.7991   25.5539  -75.0971 C.3       8 UNK         0.0270 
     31 CB        -72.2168   25.1847  -73.6623 C.3       8 UNK        -0.1976 
     32 N         -72.8305   25.1074  -76.0391 N.am      8 UNK        -0.4313 
     33 C         -72.6067   24.2858  -77.0728 C.2       8 UNK         0.5041 
     34 O         -71.4995   23.8262  -77.3581 O.2       8 UNK        -0.5577 
     35 CA        -73.8164   23.8803  -77.9308 C.3       7 UNK         0.0284 
     36 CB        -74.5545   22.6884  -77.2999 C.3       7 UNK        -0.1958 
     37 N         -74.7659   24.9655  -78.1878 N.am      7 UNK        -0.4454 
     38 C         -74.5323   25.9873  -79.0247 C.2       7 UNK         0.5089 
     39 O         -73.4516   26.1881  -79.5792 O.2       7 UNK        -0.5125 
     40 CA        -75.7111   26.9283  -79.3160 C.3       6 UNK         0.0408 
     41 CB        -76.7055   26.2681  -80.2853 C.3       6 UNK        -0.1791 
     42 N         -76.4053   27.2992  -78.0854 N.am      6 UNK        -0.4762 
     43 C         -76.1331   28.3960  -77.3643 C.2       6 UNK         0.5007 
     44 O         -75.3312   29.2611  -77.7147 O.2       6 UNK        -0.5032 
     45 CA        -76.8561   28.5392  -76.0079 C.3       5 UNK         0.0783 
     46 C46       -78.1023   29.4587  -76.1144 C.3       11 UNK        -0.0857 
     47 S47       -77.6993   31.1769  -75.6553 S.3       11 UNK        -0.2512 
     48 C48       -78.5739   31.3650  -74.0633 C.3       11 UNK         0.0225 
     49 N         -77.1786   27.2415  -75.4080 N.am      5 UNK        -0.4615 
     50 C         -76.2618   26.3705  -74.9645 C.2       4 UNK         0.5053 
     51 O         -75.0518   26.5922  -74.9909 O.2       4 UNK        -0.5105 
     52 CA        -76.7495   25.0035  -74.4573 C.3       4 UNK         0.0263 
     53 CB        -76.8557   25.0199  -72.9270 C.3       4 UNK        -0.1981 
     54 N         -78.0246   24.5715  -75.0362 N.am      4 UNK        -0.4224 
     55 C         -78.2639   24.4006  -76.3449 C.2       3 UNK         0.4895 
     56 O         -77.4086   24.5421  -77.2205 O.2       3 UNK        -0.5091 
     57 CA        -79.7167   24.1027  -76.7506 C.3       3 UNK         0.0250 
     58 CB        -80.0166   22.5995  -76.6467 C.3       3 UNK        -0.1996 
     59 N         -80.6950   24.8623  -75.9637 N.am      3 UNK        -0.4254 
     60 C         -80.7834   26.1993  -75.9246 C.2       2 UNK         0.5004 
     61 O         -80.0576   26.9412  -76.5854 O.2       2 UNK        -0.5226 
     62 CA        -81.8098   26.8343  -74.9679 C.3       2 UNK         0.0269 
     63 CB        -83.1747   27.0263  -75.6568 C.3       2 UNK        -0.1926 
     64 N         -81.9351   26.1507  -73.6719 N.am      2 UNK        -0.4687 
     65 C         -82.4481   24.9447  -73.3927 C.2       1 UNK         0.5165 
     66 O         -82.9747   24.2156  -74.2362 O.2       1 UNK        -0.5079 
     67 H67       -79.9837   20.7625  -73.0918 H         1 UNK         0.0900 
     68 H68       -79.0451   21.3429  -71.7136 H         1 UNK         0.0900 
     69 H69       -80.7063   20.7932  -71.4811 H         1 UNK         0.0900 
     70 H70       -82.1391   22.4561  -71.2681 H         1 UNK         0.2959 
     71 H71       -83.3605   24.2244  -71.6569 H         1 UNK         0.1079 
     72 H72       -82.4832   26.3417  -70.8753 H         1 UNK         0.0837 
     73 H73       -81.9147   25.0429  -69.8866 H         1 UNK         0.0837 
     74 H74       -81.1544   28.1823  -71.2251 H         1 UNK         0.0685 
     75 H75       -80.2022   28.0451  -69.7657 H         1 UNK         0.0685 
     76 H76       -80.3345   29.8063  -72.6946 H         1 UNK         0.1434 
     77 H77       -76.1286   30.4700  -73.1980 H         1 UNK         0.1329 
     78 H78       -77.5154   27.4786  -70.4572 H         1 UNK         0.1335 
     79 H79       -74.7313   28.2951  -72.4387 H         1 UNK         0.0680 
     80 H80       -75.1818   27.6537  -70.8764 H         1 UNK         0.0680 
     81 H81       -72.6489   28.1510  -70.6443 H         1 UNK         0.1032 
     82 H82       -72.2078   29.5203  -69.6637 H         1 UNK         0.1032 
     83 H83       -71.8091   30.8865  -71.7377 H         1 UNK         0.0461 
     84 H84       -68.5974   28.5608  -72.3064 H         1 UNK         0.3453 
     85 H85       -70.0036   28.4479  -73.3349 H         1 UNK         0.3453 
     86 H86       -72.7629   28.5055  -73.1219 H         1 UNK         0.2984 
     87 H87       -73.6624   29.6132  -75.5818 H         1 UNK         0.0554 
     88 H88       -72.0345   30.8558  -76.9585 H         1 UNK         0.0847 
     89 H89       -72.3447   29.2891  -77.6846 H         1 UNK         0.0847 
     90 H90       -70.8476   29.5692  -76.7937 H         1 UNK         0.0847 
     91 H91       -73.5234   27.4111  -75.4207 H         1 UNK         0.3141 
     92 H92       -70.8508   25.0532  -75.3031 H         1 UNK         0.0743 
     93 H93       -73.1556   25.6566  -73.3715 H         1 UNK         0.0784 
     94 H94       -72.3392   24.1070  -73.5540 H         1 UNK         0.0784 
     95 H95       -71.4583   25.4973  -72.9430 H         1 UNK         0.0784 
     96 H96       -73.7684   25.4619  -75.8815 H         1 UNK         0.3213 
     97 H97       -73.4280   23.5501  -78.8970 H         1 UNK         0.0855 
     98 H98       -74.9796   22.9401  -76.3292 H         1 UNK         0.0814 
     99 H99       -73.8776   21.8462  -77.1498 H         1 UNK         0.0814 
    100 H100      -75.3663   22.3409  -77.9393 H         1 UNK         0.0814 
    101 H101      -75.7036   24.8523  -77.8066 H         1 UNK         0.3105 
    102 H102      -75.3167   27.8217  -79.8052 H         1 UNK         0.0547 
    103 H103      -77.5157   26.9497  -80.5440 H         1 UNK         0.0837 
    104 H104      -77.1505   25.3658  -79.8643 H         1 UNK         0.0837 
    105 H105      -76.2120   25.9844  -81.2158 H         1 UNK         0.0837 
    106 H106      -77.0554   26.6193  -77.7084 H         1 UNK         0.3020 
    107 H107      -76.1344   29.0024  -75.3318 H         1 UNK         0.1245 
    108 H108      -78.9010   29.1076  -75.4600 H         1 UNK         0.0781 
    109 H109      -78.5378   29.4480  -77.1158 H         1 UNK         0.0781 
    110 H110      -79.6450   31.4142  -74.2656 H         1 UNK         0.0836 
    111 H111      -78.3020   32.3259  -73.6246 H         1 UNK         0.0836 
    112 H112      -78.1543   26.9742  -75.4135 H         1 UNK         0.3022 
    113 H113      -75.9963   24.2656  -74.7345 H         1 UNK         0.0747 
    114 H114      -77.1260   24.0393  -72.5349 H         1 UNK         0.0793 
    115 H115      -75.9077   25.3050  -72.4687 H         1 UNK         0.0793 
    116 H116      -77.6082   25.7326  -72.5918 H         1 UNK         0.0793 
    117 H117      -78.7749   24.3603  -74.3779 H         1 UNK         0.3047 
    118 H118      -79.8315   24.4027  -77.7943 H         1 UNK         0.0822 
    119 H119      -81.0196   22.3696  -77.0064 H         1 UNK         0.0807 
    120 H120      -79.9386   22.2403  -75.6201 H         1 UNK         0.0807 
    121 H121      -79.3154   22.0201  -77.2490 H         1 UNK         0.0807 
    122 H122      -81.3315   24.3345  -75.3753 H         1 UNK         0.2946 
    123 H123      -81.4257   27.8289  -74.7332 H         1 UNK         0.1144 
    124 H124      -83.6135   26.0797  -75.9726 H         1 UNK         0.0793 
    125 H125      -83.0726   27.6456  -76.5490 H         1 UNK         0.0793 
    126 H126      -83.8857   27.5236  -74.9972 H         1 UNK         0.0793 
    127 H127      -81.4469   26.5999  -72.9074 H         1 UNK         0.2896 
@<TRIPOS>BOND
     1    1    2 1    
     2    1   67 1    
     3    1   68 1    
     4    1   69 1    
     5    2    3 2    
     6    2    4 am   BACKBONE|DICT|INTERRES
     7    4    5 1    
     8    4   70 1    
     9    5    6 1    
    10    5   65 1    
    11    5   71 1    
    12    6    7 1    
    13    6   72 1    
    14    6   73 1    
    15    7    8 1    
    16    8    9 1    
    17    8   74 1    
    18    8   75 1    
    19    9   10 ar   
    20    9   14 ar   
    21   10   11 ar   
    22   10   76 1    
    23   11   12 ar   
    24   11   48 1    
    25   12   13 ar   
    26   12   77 1    
    27   13   14 ar   
    28   13   15 1    
    29   14   78 1    
    30   15   16 1    
    31   15   79 1    
    32   15   80 1    
    33   16   17 1    
    34   17   18 1    
    35   17   81 1    
    36   17   82 1    
    37   18   19 1    
    38   18   22 1    
    39   18   83 1    
    40   19   20 am   BACKBONE|DICT|INTERRES
    41   19   21 2    
    42   20   84 1    
    43   20   85 1    
    44   22   23 am   BACKBONE|DICT|INTERRES
    45   22   86 1    
    46   23   24 2    
    47   23   25 1    
    48   25   26 1    
    49   25   27 1    
    50   25   87 1    
    51   26   88 1    
    52   26   89 1    
    53   26   90 1    
    54   27   28 am   BACKBONE|DICT|INTERRES
    55   27   91 1    
    56   28   29 2    
    57   28   30 1    
    58   30   31 1    
    59   30   32 1    
    60   30   92 1    
    61   31   93 1    
    62   31   94 1    
    63   31   95 1    
    64   32   33 am   BACKBONE|DICT|INTERRES
    65   32   96 1    
    66   33   34 2    
    67   33   35 1    
    68   35   36 1    
    69   35   37 1    
    70   35   97 1    
    71   36   98 1    
    72   36   99 1    
    73   36  100 1    
    74   37   38 am   BACKBONE|DICT|INTERRES
    75   37  101 1    
    76   38   39 2    
    77   38   40 1    
    78   40   41 1    
    79   40   42 1    
    80   40  102 1    
    81   41  103 1    
    82   41  104 1    
    83   41  105 1    
    84   42   43 am   BACKBONE|DICT|INTERRES
    85   42  106 1    
    86   43   44 2    
    87   43   45 1    
    88   45   46 1    
    89   45   49 1    
    90   45  107 1    
    91   46   47 1    
    92   46  108 1    
    93   46  109 1    
    94   47   48 1    
    95   48  110 1    
    96   48  111 1    
    97   49   50 am   BACKBONE|DICT|INTERRES
    98   49  112 1    
    99   50   51 2    
   100   50   52 1    
   101   52   53 1    
   102   52   54 1    
   103   52  113 1    
   104   53  114 1    
   105   53  115 1    
   106   53  116 1    
   107   54   55 am   BACKBONE|DICT|INTERRES
   108   54  117 1    
   109   55   56 2    
   110   55   57 1    
   111   57   58 1    
   112   57   59 1    
   113   57  118 1    
   114   58  119 1    
   115   58  120 1    
   116   58  121 1    
   117   59   60 am   BACKBONE|DICT|INTERRES
   118   59  122 1    
   119   60   61 2    
   120   60   62 1    
   121   62   63 1    
   122   62   64 1    
   123   62  123 1    
   124   63  124 1    
   125   63  125 1    
   126   63  126 1    
   127   64   65 am   BACKBONE|DICT|INTERRES
   128   64  127 1    
   129   65   66 2    
@<TRIPOS>SUBSTRUCTURE
     1 UNK         1 GROUP             0       ****    0 ROOT    
