@<TRIPOS>MOLECULE
3R135
127   129    1
SMALL
USER_CHARGES


@<TRIPOS>ATOM
      1 CA        -83.9481   28.0252  -71.1162 C.3       0 UNK        -0.1998 
      2 C         -83.4663   28.3331  -72.5259 C.2       0 UNK         0.4909 
      3 O         -84.2842   28.4837  -73.4340 O.2       0 UNK        -0.5240 
      4 N         -82.1437   28.4300  -72.7135 N.am      1 UNK        -0.4739 
      5 CA        -81.4986   28.7069  -74.0038 C.3       1 UNK         0.0864 
      6 C6        -80.0192   29.1320  -73.8330 C.3       11 UNK        -0.0881 
      7 S7        -79.8272   30.7363  -72.9824 S.3       11 UNK        -0.2682 
      8 C8        -79.6395   30.2726  -71.2282 C.3       11 UNK         0.0289 
      9 C9        -78.4758   29.3215  -70.9856 C.ar      11 UNK        -0.0687 
     10 C10       -78.7144   28.0031  -70.5821 C.ar      11 UNK        -0.0823 
     11 C11       -77.6512   27.1272  -70.3424 C.ar      11 UNK        -0.0830 
     12 C12       -76.3400   27.5856  -70.5074 C.ar      11 UNK        -0.1021 
     13 C13       -76.0890   28.8985  -70.9138 C.ar      11 UNK        -0.0753 
     14 C14       -77.1600   29.7652  -71.1457 C.ar      11 UNK        -0.0933 
     15 C15       -74.6567   29.3714  -71.0930 C.3       11 UNK         0.0166 
     16 S16       -74.0856   29.0866  -72.7938 S.3       11 UNK        -0.2615 
     17 C17       -74.4988   30.6837  -73.5844 C.3       11 UNK        -0.0865 
     18 CA        -74.0218   30.7849  -75.0597 C.3       10 UNK         0.0862 
     19 C         -74.2244   32.2279  -75.5964 C.2       10 UNK         0.5551 
     20 N         -75.3202   32.4825  -76.2983 N.am      10 UNK        -0.7319 
     21 O         -73.4244   33.1246  -75.3357 O.2       10 UNK        -0.5018 
     22 N         -72.6503   30.2789  -75.1962 N.am      10 UNK        -0.4509 
     23 C         -71.8914   30.2259  -76.2974 C.2       10 UNK         0.4899 
     24 O         -72.1892   30.7035  -77.3921 O.2       10 UNK        -0.4839 
     25 CA        -70.5947   29.4248  -76.1394 C.3       9 UNK         0.0222 
     26 CB        -69.6173   30.1917  -75.2189 C.3       9 UNK        -0.1966 
     27 N         -70.9546   28.0934  -75.6323 N.am      9 UNK        -0.4218 
     28 C         -70.1496   27.1334  -75.1536 C.2       9 UNK         0.5020 
     29 O         -68.9268   27.2361  -75.0505 O.2       9 UNK        -0.5274 
     30 CA        -70.8200   25.8143  -74.7174 C.3       8 UNK         0.0270 
     31 CB        -71.2398   25.8907  -73.2404 C.3       8 UNK        -0.1976 
     32 N         -71.9830   25.4469  -75.5299 N.am      8 UNK        -0.4313 
     33 C         -71.9406   25.1648  -76.8416 C.2       8 UNK         0.5041 
     34 O         -70.8919   25.0778  -77.4822 O.2       8 UNK        -0.5577 
     35 CA        -73.2776   24.9559  -77.5834 C.3       7 UNK         0.0284 
     36 CB        -73.4938   23.4605  -77.8709 C.3       7 UNK        -0.1958 
     37 N         -74.4651   25.4891  -76.9052 N.am      7 UNK        -0.4454 
     38 C         -74.6441   26.7520  -76.4906 C.2       7 UNK         0.5089 
     39 O         -73.8249   27.6499  -76.6766 O.2       7 UNK        -0.5125 
     40 CA        -75.9184   27.0548  -75.6816 C.3       6 UNK         0.0408 
     41 CB        -77.0122   27.6226  -76.5967 C.3       6 UNK        -0.1791 
     42 N         -76.4493   25.9021  -74.9468 N.am      6 UNK        -0.4762 
     43 C         -75.7961   25.2012  -74.0050 C.2       6 UNK         0.5007 
     44 O         -74.6346   25.4273  -73.6620 O.2       6 UNK        -0.5032 
     45 CA        -76.5499   23.9985  -73.4085 C.3       5 UNK         0.0783 
     46 C46       -77.6105   24.4219  -72.3583 C.3       11 UNK        -0.0857 
     47 S47       -76.9140   24.4350  -70.6753 S.3       11 UNK        -0.2512 
     48 C48       -77.9321   25.7076  -69.8579 C.3       11 UNK         0.0225 
     49 N         -77.1445   23.2060  -74.4853 N.am      5 UNK        -0.4615 
     50 C         -76.5117   22.2262  -75.1439 C.2       4 UNK         0.5053 
     51 O         -75.3773   21.8373  -74.8666 O.2       4 UNK        -0.5105 
     52 CA        -77.2630   21.5603  -76.3114 C.3       4 UNK         0.0263 
     53 CB        -77.9456   20.2662  -75.8399 C.3       4 UNK        -0.1981 
     54 N         -78.2611   22.4286  -76.9414 N.am      4 UNK        -0.4224 
     55 C         -77.9730   23.5367  -77.6378 C.2       3 UNK         0.4895 
     56 O         -76.8299   23.9416  -77.8424 O.2       3 UNK        -0.5091 
     57 CA        -79.1660   24.3597  -78.1498 C.3       3 UNK         0.0250 
     58 CB        -79.6595   23.8097  -79.4976 C.3       3 UNK        -0.1996 
     59 N         -80.2922   24.4466  -77.2112 N.am      3 UNK        -0.4254 
     60 C         -80.2180   24.9037  -75.9532 C.2       2 UNK         0.5004 
     61 O         -79.1634   25.1960  -75.3835 O.2       2 UNK        -0.5226 
     62 CA        -81.5414   25.0310  -75.1831 C.3       2 UNK         0.0269 
     63 CB        -81.7100   23.8480  -74.2161 C.3       2 UNK        -0.1926 
     64 N         -81.5891   26.2823  -74.4240 N.am      2 UNK        -0.4687 
     65 C         -81.5914   27.5084  -74.9703 C.2       1 UNK         0.5165 
     66 O         -81.6603   27.7155  -76.1830 O.2       1 UNK        -0.5079 
     67 H67       -84.5989   28.8232  -70.7600 H         1 UNK         0.0900 
     68 H68       -83.1209   27.9242  -70.4138 H         1 UNK         0.0900 
     69 H69       -84.5147   27.0945  -71.1087 H         1 UNK         0.0900 
     70 H70       -81.5216   28.3092  -71.9296 H         1 UNK         0.2959 
     71 H71       -82.0367   29.5319  -74.4770 H         1 UNK         0.1079 
     72 H72       -79.5507   29.2526  -74.8117 H         1 UNK         0.0837 
     73 H73       -79.4414   28.3561  -73.3290 H         1 UNK         0.0837 
     74 H74       -79.4790   31.1813  -70.6462 H         1 UNK         0.0685 
     75 H75       -80.5750   29.8481  -70.8634 H         1 UNK         0.0685 
     76 H76       -79.7297   27.6603  -70.4405 H         1 UNK         0.1434 
     77 H77       -75.5092   26.9188  -70.3209 H         1 UNK         0.1329 
     78 H78       -76.9728   30.7841  -71.4555 H         1 UNK         0.1335 
     79 H79       -74.5627   30.4257  -70.8291 H         1 UNK         0.0680 
     80 H80       -74.0004   28.8292  -70.4105 H         1 UNK         0.0680 
     81 H81       -75.5789   30.8312  -73.5305 H         1 UNK         0.1032 
     82 H82       -74.0492   31.4792  -72.9863 H         1 UNK         0.1032 
     83 H83       -74.6439   30.1151  -75.6560 H         1 UNK         0.0461 
     84 H84       -75.9878   31.7568  -76.5066 H         1 UNK         0.3453 
     85 H85       -75.4765   33.4183  -76.6388 H         1 UNK         0.3453 
     86 H86       -72.2890   29.8458  -74.3592 H         1 UNK         0.2984 
     87 H87       -70.1409   29.3036  -77.1245 H         1 UNK         0.0554 
     88 H88       -68.6109   29.7771  -75.2651 H         1 UNK         0.0847 
     89 H89       -69.9383   30.1763  -74.1769 H         1 UNK         0.0847 
     90 H90       -69.5348   31.2373  -75.5195 H         1 UNK         0.0847 
     91 H91       -71.9413   27.8695  -75.7362 H         1 UNK         0.3141 
     92 H92       -70.0795   25.0185  -74.8217 H         1 UNK         0.0743 
     93 H93       -72.0064   26.6499  -73.0776 H         1 UNK         0.0784 
     94 H94       -71.6368   24.9375  -72.8907 H         1 UNK         0.0784 
     95 H95       -70.3901   26.1417  -72.6040 H         1 UNK         0.0784 
     96 H96       -72.8869   25.4771  -75.0708 H         1 UNK         0.3213 
     97 H97       -73.1927   25.4798  -78.5374 H         1 UNK         0.0855 
     98 H98       -73.6710   22.8962  -76.9544 H         1 UNK         0.0814 
     99 H99       -72.6226   23.0231  -78.3608 H         1 UNK         0.0814 
    100 H100      -74.3439   23.3014  -78.5339 H         1 UNK         0.0814 
    101 H101      -75.2394   24.8452  -76.7858 H         1 UNK         0.3105 
    102 H102      -75.6659   27.8165  -74.9430 H         1 UNK         0.0547 
    103 H103      -77.2867   26.9136  -77.3773 H         1 UNK         0.0837 
    104 H104      -77.9135   27.8693  -76.0360 H         1 UNK         0.0837 
    105 H105      -76.6732   28.5351  -77.0889 H         1 UNK         0.0837 
    106 H106      -77.4104   25.6378  -75.1591 H         1 UNK         0.3020 
    107 H107      -75.8036   23.3741  -72.9107 H         1 UNK         0.1245 
    108 H108      -78.0602   25.3881  -72.5976 H         1 UNK         0.0781 
    109 H109      -78.4373   23.7099  -72.3436 H         1 UNK         0.0781 
    110 H110      -78.9841   25.4505  -69.9917 H         1 UNK         0.0836 
    111 H111      -77.7408   25.6677  -68.7849 H         1 UNK         0.0836 
    112 H112      -78.0472   23.5200  -74.8198 H         1 UNK         0.3022 
    113 H113      -76.5205   21.2999  -77.0691 H         1 UNK         0.0747 
    114 H114      -78.4118   19.7369  -76.6711 H         1 UNK         0.0793 
    115 H115      -77.2216   19.5849  -75.3903 H         1 UNK         0.0793 
    116 H116      -78.7146   20.4639  -75.0919 H         1 UNK         0.0793 
    117 H117      -79.2312   22.1770  -76.8198 H         1 UNK         0.3047 
    118 H118      -78.8088   25.3775  -78.3146 H         1 UNK         0.0822 
    119 H119      -80.4255   24.4521  -79.9326 H         1 UNK         0.0807 
    120 H120      -80.0777   22.8072  -79.3983 H         1 UNK         0.0807 
    121 H121      -78.8423   23.7520  -80.2183 H         1 UNK         0.0807 
    122 H122      -81.2007   24.2145  -77.5868 H         1 UNK         0.2946 
    123 H123      -82.3723   25.0329  -75.8922 H         1 UNK         0.1144 
    124 H124      -82.6569   23.9065  -73.6789 H         1 UNK         0.0793 
    125 H125      -80.9072   23.8113  -73.4782 H         1 UNK         0.0793 
    126 H126      -81.7026   22.8986  -74.7533 H         1 UNK         0.0793 
    127 H127      -81.5222   26.2083  -73.4202 H         1 UNK         0.2896 
@<TRIPOS>BOND
     1    1    2 1    
     2    1   67 1    
     3    1   68 1    
     4    1   69 1    
     5    2    3 2    
     6    2    4 am   BACKBONE|DICT|INTERRES
     7    4    5 1    
     8    4   70 1    
     9    5    6 1    
    10    5   65 1    
    11    5   71 1    
    12    6    7 1    
    13    6   72 1    
    14    6   73 1    
    15    7    8 1    
    16    8    9 1    
    17    8   74 1    
    18    8   75 1    
    19    9   10 ar   
    20    9   14 ar   
    21   10   11 ar   
    22   10   76 1    
    23   11   12 ar   
    24   11   48 1    
    25   12   13 ar   
    26   12   77 1    
    27   13   14 ar   
    28   13   15 1    
    29   14   78 1    
    30   15   16 1    
    31   15   79 1    
    32   15   80 1    
    33   16   17 1    
    34   17   18 1    
    35   17   81 1    
    36   17   82 1    
    37   18   19 1    
    38   18   22 1    
    39   18   83 1    
    40   19   20 am   BACKBONE|DICT|INTERRES
    41   19   21 2    
    42   20   84 1    
    43   20   85 1    
    44   22   23 am   BACKBONE|DICT|INTERRES
    45   22   86 1    
    46   23   24 2    
    47   23   25 1    
    48   25   26 1    
    49   25   27 1    
    50   25   87 1    
    51   26   88 1    
    52   26   89 1    
    53   26   90 1    
    54   27   28 am   BACKBONE|DICT|INTERRES
    55   27   91 1    
    56   28   29 2    
    57   28   30 1    
    58   30   31 1    
    59   30   32 1    
    60   30   92 1    
    61   31   93 1    
    62   31   94 1    
    63   31   95 1    
    64   32   33 am   BACKBONE|DICT|INTERRES
    65   32   96 1    
    66   33   34 2    
    67   33   35 1    
    68   35   36 1    
    69   35   37 1    
    70   35   97 1    
    71   36   98 1    
    72   36   99 1    
    73   36  100 1    
    74   37   38 am   BACKBONE|DICT|INTERRES
    75   37  101 1    
    76   38   39 2    
    77   38   40 1    
    78   40   41 1    
    79   40   42 1    
    80   40  102 1    
    81   41  103 1    
    82   41  104 1    
    83   41  105 1    
    84   42   43 am   BACKBONE|DICT|INTERRES
    85   42  106 1    
    86   43   44 2    
    87   43   45 1    
    88   45   46 1    
    89   45   49 1    
    90   45  107 1    
    91   46   47 1    
    92   46  108 1    
    93   46  109 1    
    94   47   48 1    
    95   48  110 1    
    96   48  111 1    
    97   49   50 am   BACKBONE|DICT|INTERRES
    98   49  112 1    
    99   50   51 2    
   100   50   52 1    
   101   52   53 1    
   102   52   54 1    
   103   52  113 1    
   104   53  114 1    
   105   53  115 1    
   106   53  116 1    
   107   54   55 am   BACKBONE|DICT|INTERRES
   108   54  117 1    
   109   55   56 2    
   110   55   57 1    
   111   57   58 1    
   112   57   59 1    
   113   57  118 1    
   114   58  119 1    
   115   58  120 1    
   116   58  121 1    
   117   59   60 am   BACKBONE|DICT|INTERRES
   118   59  122 1    
   119   60   61 2    
   120   60   62 1    
   121   62   63 1    
   122   62   64 1    
   123   62  123 1    
   124   63  124 1    
   125   63  125 1    
   126   63  126 1    
   127   64   65 am   BACKBONE|DICT|INTERRES
   128   64  127 1    
   129   65   66 2    
@<TRIPOS>SUBSTRUCTURE
     1 UNK         1 GROUP             0       ****    0 ROOT    
