@<TRIPOS>MOLECULE
3R135
127   129    1
SMALL
USER_CHARGES


@<TRIPOS>ATOM
      1 CA        -83.6821   27.5313  -73.1418 C.3       0 UNK        -0.1998 
      2 C         -82.3615   27.1507  -72.4778 C.2       0 UNK         0.4909 
      3 O         -82.3674   26.3776  -71.5225 O.2       0 UNK        -0.5240 
      4 N         -81.2091   27.6609  -72.9343 N.am      1 UNK        -0.4739 
      5 CA        -81.0332   28.5861  -74.0635 C.3       1 UNK         0.0864 
      6 C6        -79.7718   29.4690  -73.8742 C.3       11 UNK        -0.0881 
      7 S7        -80.0323   30.8474  -72.6967 S.3       11 UNK        -0.2682 
      8 C8        -79.6996   30.1440  -71.0412 C.3       11 UNK         0.0289 
      9 C9        -78.4122   29.3342  -70.9715 C.ar      11 UNK        -0.0687 
     10 C10       -78.4622   27.9886  -70.5996 C.ar      11 UNK        -0.0823 
     11 C11       -77.3146   27.1942  -70.6640 C.ar      11 UNK        -0.0830 
     12 C12       -76.0989   27.7677  -71.0454 C.ar      11 UNK        -0.1021 
     13 C13       -76.0254   29.1245  -71.3726 C.ar      11 UNK        -0.0753 
     14 C14       -77.1853   29.9054  -71.3272 C.ar      11 UNK        -0.0933 
     15 C15       -74.7142   29.7205  -71.8631 C.3       11 UNK         0.0166 
     16 S16       -73.3735   29.5436  -70.6386 S.3       11 UNK        -0.2615 
     17 C17       -71.9201   30.4594  -71.2915 C.3       11 UNK        -0.0865 
     18 CA        -72.0517   31.2055  -72.6494 C.3       10 UNK         0.0862 
     19 C         -70.8400   32.1576  -72.8790 C.2       10 UNK         0.5551 
     20 N         -70.0166   31.9577  -73.9015 N.am      10 UNK        -0.7319 
     21 O         -70.6502   33.1025  -72.1169 O.2       10 UNK        -0.5018 
     22 N         -72.2863   30.2762  -73.7655 N.am      10 UNK        -0.4509 
     23 C         -72.9417   30.5806  -74.8905 C.2       10 UNK         0.4899 
     24 O         -73.4466   31.6832  -75.1022 O.2       10 UNK        -0.4839 
     25 CA        -73.0955   29.4839  -75.9614 C.3       9 UNK         0.0222 
     26 CB        -72.1435   29.7376  -77.1469 C.3       9 UNK        -0.1966 
     27 N         -72.9878   28.0944  -75.4902 N.am      9 UNK        -0.4218 
     28 C         -71.9186   27.4414  -75.0101 C.2       9 UNK         0.5020 
     29 O         -70.8437   27.9807  -74.7449 O.2       9 UNK        -0.5274 
     30 CA        -72.0754   25.9265  -74.7882 C.3       8 UNK         0.0270 
     31 CB        -72.6956   25.6443  -73.4094 C.3       8 UNK        -0.1976 
     32 N         -72.8683   25.2774  -75.8395 N.am      8 UNK        -0.4313 
     33 C         -72.4972   25.1820  -77.1270 C.2       8 UNK         0.5041 
     34 O         -71.3964   25.5369  -77.5510 O.2       8 UNK        -0.5577 
     35 CA        -73.5351   24.6235  -78.1186 C.3       7 UNK         0.0284 
     36 CB        -73.5377   23.0866  -78.1113 C.3       7 UNK        -0.1958 
     37 N         -74.8854   25.1292  -77.8570 N.am      7 UNK        -0.4454 
     38 C         -75.2589   26.4084  -78.0135 C.2       7 UNK         0.5089 
     39 O         -74.5414   27.2787  -78.5051 O.2       7 UNK        -0.5125 
     40 CA        -76.6529   26.7961  -77.4919 C.3       6 UNK         0.0408 
     41 CB        -77.7221   26.6307  -78.5822 C.3       6 UNK        -0.1791 
     42 N         -77.0250   26.0365  -76.2949 N.am      6 UNK        -0.4762 
     43 C         -76.4670   26.2261  -75.0899 C.2       6 UNK         0.5007 
     44 O         -75.6302   27.0992  -74.8616 O.2       6 UNK        -0.5032 
     45 CA        -76.8759   25.2583  -73.9625 C.3       5 UNK         0.0783 
     46 C46       -78.1282   25.7812  -73.2352 C.3       11 UNK        -0.0857 
     47 S47       -78.4900   24.8787  -71.6865 S.3       11 UNK        -0.2512 
     48 C48       -77.4143   25.6920  -70.4485 C.3       11 UNK         0.0225 
     49 N         -77.0626   23.8951  -74.4597 N.am      5 UNK        -0.4615 
     50 C         -76.0610   23.1082  -74.8712 C.2       4 UNK         0.5053 
     51 O         -74.8778   23.4431  -74.8317 O.2       4 UNK        -0.5105 
     52 CA        -76.4396   21.7442  -75.4750 C.3       4 UNK         0.0263 
     53 CB        -76.4613   20.6625  -74.3843 C.3       4 UNK        -0.1981 
     54 N         -77.7244   21.7517  -76.1825 N.am      4 UNK        -0.4224 
     55 C         -78.0145   22.5257  -77.2382 C.2       3 UNK         0.4895 
     56 O         -77.2095   23.3069  -77.7474 O.2       3 UNK        -0.5091 
     57 CA        -79.4453   22.4571  -77.8062 C.3       3 UNK         0.0250 
     58 CB        -80.3041   21.3084  -77.2267 C.3       3 UNK        -0.1996 
     59 N         -80.1480   23.7410  -77.6705 N.am      3 UNK        -0.4254 
     60 C         -80.3866   24.4110  -76.5329 C.2       2 UNK         0.5004 
     61 O         -80.0146   24.0333  -75.4194 O.2       2 UNK        -0.5226 
     62 CA        -81.1939   25.7095  -76.6666 C.3       2 UNK         0.0269 
     63 CB        -82.6847   25.4037  -76.8999 C.3       2 UNK        -0.1926 
     64 N         -81.0620   26.5272  -75.4585 N.am      2 UNK        -0.4687 
     65 C         -81.0352   27.8678  -75.4368 C.2       1 UNK         0.5165 
     66 O         -81.0506   28.5518  -76.4612 O.2       1 UNK        -0.5079 
     67 H67       -83.6678   27.3220  -74.2106 H         1 UNK         0.0900 
     68 H68       -84.5038   26.9608  -72.7091 H         1 UNK         0.0900 
     69 H69       -83.8967   28.5881  -72.9905 H         1 UNK         0.0900 
     70 H70       -80.3564   27.3877  -72.4685 H         1 UNK         0.2959 
     71 H71       -81.8902   29.2616  -74.0998 H         1 UNK         0.1079 
     72 H72       -78.9035   28.8765  -73.5898 H         1 UNK         0.0837 
     73 H73       -79.4918   29.9451  -74.8162 H         1 UNK         0.0837 
     74 H74       -80.5565   29.5353  -70.7485 H         1 UNK         0.0685 
     75 H75       -79.6446   30.9587  -70.3182 H         1 UNK         0.0685 
     76 H76       -79.4070   27.5349  -70.3309 H         1 UNK         0.1434 
     77 H77       -75.2116   27.1544  -71.1249 H         1 UNK         0.1329 
     78 H78       -77.1480   30.9465  -71.6177 H         1 UNK         0.1335 
     79 H79       -74.8491   30.7727  -72.1163 H         1 UNK         0.0680 
     80 H80       -74.4443   29.1953  -72.7793 H         1 UNK         0.0680 
     81 H81       -71.0849   29.7577  -71.3412 H         1 UNK         0.1032 
     82 H82       -71.6481   31.1699  -70.5080 H         1 UNK         0.1032 
     83 H83       -72.9133   31.8697  -72.5711 H         1 UNK         0.0461 
     84 H84       -69.2389   32.5832  -74.0418 H         1 UNK         0.3453 
     85 H85       -70.1617   31.1805  -74.5259 H         1 UNK         0.3453 
     86 H86       -71.8238   29.3755  -73.7195 H         1 UNK         0.2984 
     87 H87       -74.1155   29.5731  -76.3391 H         1 UNK         0.0554 
     88 H88       -72.3008   30.7311  -77.5689 H         1 UNK         0.0847 
     89 H89       -72.3103   29.0163  -77.9473 H         1 UNK         0.0847 
     90 H90       -71.0960   29.6729  -76.8512 H         1 UNK         0.0847 
     91 H91       -73.8599   27.5732  -75.5308 H         1 UNK         0.3141 
     92 H92       -71.0769   25.4846  -74.8082 H         1 UNK         0.0743 
     93 H93       -72.0825   26.0691  -72.6134 H         1 UNK         0.0784 
     94 H94       -73.6918   26.0758  -73.3142 H         1 UNK         0.0784 
     95 H95       -72.7745   24.5733  -73.2210 H         1 UNK         0.0784 
     96 H96       -73.7479   24.8543  -75.5560 H         1 UNK         0.3213 
     97 H97       -73.2480   24.9542  -79.1195 H         1 UNK         0.0855 
     98 H98       -73.7596   22.6840  -77.1237 H         1 UNK         0.0814 
     99 H99       -72.5620   22.6977  -78.4059 H         1 UNK         0.0814 
    100 H100      -74.2722   22.6861  -78.8104 H         1 UNK         0.0814 
    101 H101      -75.5802   24.4637  -77.5326 H         1 UNK         0.3105 
    102 H102      -76.6176   27.8544  -77.2237 H         1 UNK         0.0547 
    103 H103      -78.6820   27.0255  -78.2525 H         1 UNK         0.0837 
    104 H104      -77.8607   25.5887  -78.8690 H         1 UNK         0.0837 
    105 H105      -77.4444   27.1795  -79.4831 H         1 UNK         0.0837 
    106 H106      -77.6455   25.2492  -76.4237 H         1 UNK         0.3020 
    107 H107      -76.0505   25.2462  -73.2470 H         1 UNK         0.1245 
    108 H108      -79.0012   25.6925  -73.8753 H         1 UNK         0.0781 
    109 H109      -78.0419   26.8477  -73.0453 H         1 UNK         0.0781 
    110 H110      -76.4263   25.2303  -70.4896 H         1 UNK         0.0836 
    111 H111      -77.8038   25.4924  -69.4494 H         1 UNK         0.0836 
    112 H112      -78.0203   23.5753  -74.5477 H         1 UNK         0.3022 
    113 H113      -75.6679   21.4816  -76.2009 H         1 UNK         0.0747 
    114 H114      -76.6401   19.6744  -74.8085 H         1 UNK         0.0793 
    115 H115      -75.5053   20.6192  -73.8596 H         1 UNK         0.0793 
    116 H116      -77.2342   20.8547  -73.6390 H         1 UNK         0.0793 
    117 H117      -78.4523   21.1575  -75.8127 H         1 UNK         0.3047 
    118 H118      -79.3326   22.2756  -78.8763 H         1 UNK         0.0822 
    119 H119      -81.2731   21.2611  -77.7239 H         1 UNK         0.0807 
    120 H120      -80.4932   21.4270  -76.1590 H         1 UNK         0.0807 
    121 H121      -79.8251   20.3399  -77.3777 H         1 UNK         0.0807 
    122 H122      -80.4763   24.1416  -78.5384 H         1 UNK         0.2946 
    123 H123      -80.8032   26.2553  -77.5278 H         1 UNK         0.1144 
    124 H124      -83.1171   24.8548  -76.0624 H         1 UNK         0.0793 
    125 H125      -82.8318   24.8007  -77.7967 H         1 UNK         0.0793 
    126 H126      -83.2609   26.3197  -77.0319 H         1 UNK         0.0793 
    127 H127      -80.9958   26.0087  -74.5916 H         1 UNK         0.2896 
@<TRIPOS>BOND
     1    1    2 1    
     2    1   67 1    
     3    1   68 1    
     4    1   69 1    
     5    2    3 2    
     6    2    4 am   BACKBONE|DICT|INTERRES
     7    4    5 1    
     8    4   70 1    
     9    5    6 1    
    10    5   65 1    
    11    5   71 1    
    12    6    7 1    
    13    6   72 1    
    14    6   73 1    
    15    7    8 1    
    16    8    9 1    
    17    8   74 1    
    18    8   75 1    
    19    9   10 ar   
    20    9   14 ar   
    21   10   11 ar   
    22   10   76 1    
    23   11   12 ar   
    24   11   48 1    
    25   12   13 ar   
    26   12   77 1    
    27   13   14 ar   
    28   13   15 1    
    29   14   78 1    
    30   15   16 1    
    31   15   79 1    
    32   15   80 1    
    33   16   17 1    
    34   17   18 1    
    35   17   81 1    
    36   17   82 1    
    37   18   19 1    
    38   18   22 1    
    39   18   83 1    
    40   19   20 am   BACKBONE|DICT|INTERRES
    41   19   21 2    
    42   20   84 1    
    43   20   85 1    
    44   22   23 am   BACKBONE|DICT|INTERRES
    45   22   86 1    
    46   23   24 2    
    47   23   25 1    
    48   25   26 1    
    49   25   27 1    
    50   25   87 1    
    51   26   88 1    
    52   26   89 1    
    53   26   90 1    
    54   27   28 am   BACKBONE|DICT|INTERRES
    55   27   91 1    
    56   28   29 2    
    57   28   30 1    
    58   30   31 1    
    59   30   32 1    
    60   30   92 1    
    61   31   93 1    
    62   31   94 1    
    63   31   95 1    
    64   32   33 am   BACKBONE|DICT|INTERRES
    65   32   96 1    
    66   33   34 2    
    67   33   35 1    
    68   35   36 1    
    69   35   37 1    
    70   35   97 1    
    71   36   98 1    
    72   36   99 1    
    73   36  100 1    
    74   37   38 am   BACKBONE|DICT|INTERRES
    75   37  101 1    
    76   38   39 2    
    77   38   40 1    
    78   40   41 1    
    79   40   42 1    
    80   40  102 1    
    81   41  103 1    
    82   41  104 1    
    83   41  105 1    
    84   42   43 am   BACKBONE|DICT|INTERRES
    85   42  106 1    
    86   43   44 2    
    87   43   45 1    
    88   45   46 1    
    89   45   49 1    
    90   45  107 1    
    91   46   47 1    
    92   46  108 1    
    93   46  109 1    
    94   47   48 1    
    95   48  110 1    
    96   48  111 1    
    97   49   50 am   BACKBONE|DICT|INTERRES
    98   49  112 1    
    99   50   51 2    
   100   50   52 1    
   101   52   53 1    
   102   52   54 1    
   103   52  113 1    
   104   53  114 1    
   105   53  115 1    
   106   53  116 1    
   107   54   55 am   BACKBONE|DICT|INTERRES
   108   54  117 1    
   109   55   56 2    
   110   55   57 1    
   111   57   58 1    
   112   57   59 1    
   113   57  118 1    
   114   58  119 1    
   115   58  120 1    
   116   58  121 1    
   117   59   60 am   BACKBONE|DICT|INTERRES
   118   59  122 1    
   119   60   61 2    
   120   60   62 1    
   121   62   63 1    
   122   62   64 1    
   123   62  123 1    
   124   63  124 1    
   125   63  125 1    
   126   63  126 1    
   127   64   65 am   BACKBONE|DICT|INTERRES
   128   64  127 1    
   129   65   66 2    
@<TRIPOS>SUBSTRUCTURE
     1 UNK         1 GROUP             0       ****    0 ROOT    
