@<TRIPOS>MOLECULE
3R135
127   129    1
SMALL
USER_CHARGES


@<TRIPOS>ATOM
      1 CA        -80.4099   21.4159  -72.0209 C.3       0 UNK        -0.1998 
      2 C         -80.1607   22.9095  -72.1587 C.2       0 UNK         0.4909 
      3 O         -79.0525   23.3102  -72.5145 O.2       0 UNK        -0.5240 
      4 N         -81.1879   23.7331  -71.8993 N.am      1 UNK        -0.4739 
      5 CA        -81.1563   25.2031  -71.9549 C.3       1 UNK         0.0864 
      6 C6        -80.3218   25.8084  -70.7928 C.3       11 UNK        -0.0881 
      7 S7        -80.8504   27.4920  -70.3256 S.3       11 UNK        -0.2682 
      8 C8        -79.2571   28.3417  -70.0154 C.3       11 UNK         0.0289 
      9 C9        -78.7441   29.2514  -71.1375 C.ar      11 UNK        -0.0687 
     10 C10       -79.5753   29.7337  -72.1575 C.ar      11 UNK        -0.0823 
     11 C11       -79.0843   30.6180  -73.1221 C.ar      11 UNK        -0.0830 
     12 C12       -77.7529   31.0313  -73.0567 C.ar      11 UNK        -0.1021 
     13 C13       -76.8935   30.5427  -72.0714 C.ar      11 UNK        -0.0753 
     14 C14       -77.4041   29.6594  -71.1082 C.ar      11 UNK        -0.0933 
     15 C15       -75.4341   31.0025  -72.1260 C.3       11 UNK         0.0166 
     16 S16       -74.3841   30.5865  -70.6940 S.3       11 UNK        -0.2615 
     17 C17       -74.0144   28.8266  -70.9916 C.3       11 UNK        -0.0865 
     18 CA        -72.6772   28.6193  -71.7516 C.3       10 UNK         0.0862 
     19 C         -72.0780   27.2221  -71.4532 C.2       10 UNK         0.5551 
     20 N         -70.8921   27.1611  -70.8641 N.am      10 UNK        -0.7319 
     21 O         -72.7018   26.1968  -71.7159 O.2       10 UNK        -0.5018 
     22 N         -72.8673   28.7519  -73.1988 N.am      10 UNK        -0.4509 
     23 C         -71.9481   29.1846  -74.0658 C.2       10 UNK         0.4899 
     24 O         -70.8783   29.7024  -73.7395 O.2       10 UNK        -0.4839 
     25 CA        -72.2887   28.9507  -75.5512 C.3       9 UNK         0.0222 
     26 CB        -71.2768   29.5994  -76.5193 C.3       9 UNK        -0.1966 
     27 N         -72.4582   27.5194  -75.8424 N.am      9 UNK        -0.4218 
     28 C         -71.5482   26.5441  -75.6823 C.2       9 UNK         0.5020 
     29 O         -70.3806   26.7346  -75.3393 O.2       9 UNK        -0.5274 
     30 CA        -72.0079   25.0985  -75.9363 C.3       8 UNK         0.0270 
     31 CB        -72.3908   24.4142  -74.6176 C.3       8 UNK        -0.1976 
     32 N         -73.1163   24.9870  -76.8905 N.am      8 UNK        -0.4313 
     33 C         -72.9383   25.0133  -78.2178 C.2       8 UNK         0.5041 
     34 O         -71.8546   25.2337  -78.7608 O.2       8 UNK        -0.5577 
     35 CA        -74.1625   24.7179  -79.0895 C.3       7 UNK         0.0284 
     36 CB        -74.6151   23.2529  -78.9486 C.3       7 UNK        -0.1958 
     37 N         -75.2734   25.6227  -78.7893 N.am      7 UNK        -0.4454 
     38 C         -75.5223   26.7331  -79.4961 C.2       7 UNK         0.5089 
     39 O         -74.7836   27.1606  -80.3845 O.2       7 UNK        -0.5125 
     40 CA        -76.8379   27.4705  -79.2197 C.3       6 UNK         0.0408 
     41 CB        -77.9849   26.8114  -80.0031 C.3       6 UNK        -0.1791 
     42 N         -77.1990   27.5335  -77.8047 N.am      6 UNK        -0.4762 
     43 C         -76.7984   28.5094  -76.9793 C.2       6 UNK         0.5007 
     44 O         -75.9228   29.3288  -77.2615 O.2       6 UNK        -0.5032 
     45 CA        -77.5318   28.6103  -75.6280 C.3       5 UNK         0.0783 
     46 C46       -79.0354   28.9640  -75.8076 C.3       11 UNK        -0.0857 
     47 S47       -79.3133   30.7627  -75.9040 S.3       11 UNK        -0.2512 
     48 C48       -79.9884   31.1179  -74.2437 C.3       11 UNK         0.0225 
     49 N         -77.3514   27.4170  -74.8064 N.am      5 UNK        -0.4615 
     50 C         -76.1916   27.0145  -74.2739 C.2       4 UNK         0.5053 
     51 O         -75.1315   27.6267  -74.3845 O.2       4 UNK        -0.5105 
     52 CA        -76.2129   25.6790  -73.5130 C.3       4 UNK         0.0263 
     53 CB        -76.6510   25.8896  -72.0574 C.3       4 UNK        -0.1981 
     54 N         -77.0713   24.6893  -74.1682 N.am      4 UNK        -0.4224 
     55 C         -76.8533   24.2154  -75.4046 C.2       3 UNK         0.4895 
     56 O         -75.8611   24.4946  -76.0810 O.2       3 UNK        -0.5091 
     57 CA        -77.9541   23.3349  -76.0141 C.3       3 UNK         0.0250 
     58 CB        -77.8411   21.8846  -75.5193 C.3       3 UNK        -0.1996 
     59 N         -79.2924   23.8641  -75.7356 N.am      3 UNK        -0.4254 
     60 C         -79.7814   24.9888  -76.2790 C.2       2 UNK         0.5004 
     61 O         -79.1760   25.6639  -77.1100 O.2       2 UNK        -0.5226 
     62 CA        -81.1632   25.4647  -75.8003 C.3       2 UNK         0.0269 
     63 CB        -82.2729   24.8533  -76.6696 C.3       2 UNK        -0.1926 
     64 N         -81.4288   25.1723  -74.3887 N.am      2 UNK        -0.4687 
     65 C         -80.7505   25.7045  -73.3607 C.2       1 UNK         0.5165 
     66 O         -79.8180   26.4947  -73.5072 O.2       1 UNK        -0.5079 
     67 H67       -80.2309   20.9167  -72.9727 H         1 UNK         0.0900 
     68 H68       -79.7317   20.9916  -71.2812 H         1 UNK         0.0900 
     69 H69       -81.4313   21.1988  -71.7093 H         1 UNK         0.0900 
     70 H70       -82.0754   23.3333  -71.6258 H         1 UNK         0.2959 
     71 H71       -82.1914   25.5204  -71.8166 H         1 UNK         0.1079 
     72 H72       -80.4421   25.1954  -69.8983 H         1 UNK         0.0837 
     73 H73       -79.2587   25.7757  -71.0166 H         1 UNK         0.0837 
     74 H74       -79.3836   28.9599  -69.1259 H         1 UNK         0.0685 
     75 H75       -78.4965   27.6028  -69.7593 H         1 UNK         0.0685 
     76 H76       -80.6109   29.4303  -72.2051 H         1 UNK         0.1434 
     77 H77       -77.3745   31.7157  -73.8042 H         1 UNK         0.1329 
     78 H78       -76.7673   29.2865  -70.3197 H         1 UNK         0.1335 
     79 H79       -74.9740   30.6051  -73.0315 H         1 UNK         0.0680 
     80 H80       -75.4194   32.0885  -72.2299 H         1 UNK         0.0680 
     81 H81       -73.9832   28.3499  -70.0096 H         1 UNK         0.1032 
     82 H82       -74.8400   28.3561  -71.5255 H         1 UNK         0.1032 
     83 H83       -71.9671   29.3759  -71.4106 H         1 UNK         0.0461 
     84 H84       -70.3763   27.9993  -70.6451 H         1 UNK         0.3453 
     85 H85       -70.4973   26.2588  -70.6505 H         1 UNK         0.3453 
     86 H86       -73.7010   28.3046  -73.5791 H         1 UNK         0.2984 
     87 H87       -73.2589   29.4181  -75.7288 H         1 UNK         0.0554 
     88 H88       -71.2194   30.6761  -76.3553 H         1 UNK         0.0847 
     89 H89       -71.5682   29.4442  -77.5580 H         1 UNK         0.0847 
     90 H90       -70.2711   29.1988  -76.3899 H         1 UNK         0.0847 
     91 H91       -73.4022   27.2386  -76.0713 H         1 UNK         0.3141 
     92 H92       -71.1522   24.5548  -76.3434 H         1 UNK         0.0743 
     93 H93       -73.1660   24.9693  -74.0967 H         1 UNK         0.0784 
     94 H94       -72.7461   23.3961  -74.7770 H         1 UNK         0.0784 
     95 H95       -71.5332   24.3608  -73.9455 H         1 UNK         0.0784 
     96 H96       -74.0475   24.7993  -76.5222 H         1 UNK         0.3213 
     97 H97       -73.8560   24.8476  -80.1303 H         1 UNK         0.0855 
     98 H98       -74.9144   23.0010  -77.9321 H         1 UNK         0.0814 
     99 H99       -73.8079   22.5724  -79.2227 H         1 UNK         0.0814 
    100 H100      -75.4566   23.0355  -79.6065 H         1 UNK         0.0814 
    101 H101      -75.8810   25.3699  -78.0185 H         1 UNK         0.3105 
    102 H102      -76.7301   28.4890  -79.5999 H         1 UNK         0.0547 
    103 H103      -78.9187   27.3589  -79.8750 H         1 UNK         0.0837 
    104 H104      -78.1552   25.7825  -79.6833 H         1 UNK         0.0837 
    105 H105      -77.7664   26.7886  -81.0716 H         1 UNK         0.0837 
    106 H106      -77.9094   26.8733  -77.4865 H         1 UNK         0.3020 
    107 H107      -77.0458   29.4181  -75.0796 H         1 UNK         0.1245 
    108 H108      -79.6206   28.5847  -74.9705 H         1 UNK         0.0781 
    109 H109      -79.4713   28.4906  -76.6891 H         1 UNK         0.0781 
    110 H110      -80.9823   30.6738  -74.1687 H         1 UNK         0.0836 
    111 H111      -80.1242   32.1950  -74.1385 H         1 UNK         0.0836 
    112 H112      -78.1894   26.8901  -74.5818 H         1 UNK         0.3022 
    113 H113      -75.2057   25.2690  -73.4979 H         1 UNK         0.0747 
    114 H114      -76.9523   24.9556  -71.5829 H         1 UNK         0.0793 
    115 H115      -75.8325   26.2975  -71.4659 H         1 UNK         0.0793 
    116 H116      -77.4793   26.5943  -71.9909 H         1 UNK         0.0793 
    117 H117      -77.8913   24.3739  -73.6553 H         1 UNK         0.3047 
    118 H118      -77.8111   23.3325  -77.0971 H         1 UNK         0.0822 
    119 H119      -78.5890   21.2457  -75.9891 H         1 UNK         0.0807 
    120 H120      -77.9658   21.8095  -74.4389 H         1 UNK         0.0807 
    121 H121      -76.8622   21.4686  -75.7619 H         1 UNK         0.0807 
    122 H122      -79.8359   23.3935  -75.0271 H         1 UNK         0.2946 
    123 H123      -81.1901   26.5496  -75.9255 H         1 UNK         0.1144 
    124 H124      -83.2512   25.2551  -76.4054 H         1 UNK         0.0793 
    125 H125      -82.3157   23.7681  -76.5685 H         1 UNK         0.0793 
    126 H126      -82.1080   25.0761  -77.7250 H         1 UNK         0.0793 
    127 H127      -82.1642   24.5092  -74.1893 H         1 UNK         0.2896 
@<TRIPOS>BOND
     1    1    2 1    
     2    1   67 1    
     3    1   68 1    
     4    1   69 1    
     5    2    3 2    
     6    2    4 am   BACKBONE|DICT|INTERRES
     7    4    5 1    
     8    4   70 1    
     9    5    6 1    
    10    5   65 1    
    11    5   71 1    
    12    6    7 1    
    13    6   72 1    
    14    6   73 1    
    15    7    8 1    
    16    8    9 1    
    17    8   74 1    
    18    8   75 1    
    19    9   10 ar   
    20    9   14 ar   
    21   10   11 ar   
    22   10   76 1    
    23   11   12 ar   
    24   11   48 1    
    25   12   13 ar   
    26   12   77 1    
    27   13   14 ar   
    28   13   15 1    
    29   14   78 1    
    30   15   16 1    
    31   15   79 1    
    32   15   80 1    
    33   16   17 1    
    34   17   18 1    
    35   17   81 1    
    36   17   82 1    
    37   18   19 1    
    38   18   22 1    
    39   18   83 1    
    40   19   20 am   BACKBONE|DICT|INTERRES
    41   19   21 2    
    42   20   84 1    
    43   20   85 1    
    44   22   23 am   BACKBONE|DICT|INTERRES
    45   22   86 1    
    46   23   24 2    
    47   23   25 1    
    48   25   26 1    
    49   25   27 1    
    50   25   87 1    
    51   26   88 1    
    52   26   89 1    
    53   26   90 1    
    54   27   28 am   BACKBONE|DICT|INTERRES
    55   27   91 1    
    56   28   29 2    
    57   28   30 1    
    58   30   31 1    
    59   30   32 1    
    60   30   92 1    
    61   31   93 1    
    62   31   94 1    
    63   31   95 1    
    64   32   33 am   BACKBONE|DICT|INTERRES
    65   32   96 1    
    66   33   34 2    
    67   33   35 1    
    68   35   36 1    
    69   35   37 1    
    70   35   97 1    
    71   36   98 1    
    72   36   99 1    
    73   36  100 1    
    74   37   38 am   BACKBONE|DICT|INTERRES
    75   37  101 1    
    76   38   39 2    
    77   38   40 1    
    78   40   41 1    
    79   40   42 1    
    80   40  102 1    
    81   41  103 1    
    82   41  104 1    
    83   41  105 1    
    84   42   43 am   BACKBONE|DICT|INTERRES
    85   42  106 1    
    86   43   44 2    
    87   43   45 1    
    88   45   46 1    
    89   45   49 1    
    90   45  107 1    
    91   46   47 1    
    92   46  108 1    
    93   46  109 1    
    94   47   48 1    
    95   48  110 1    
    96   48  111 1    
    97   49   50 am   BACKBONE|DICT|INTERRES
    98   49  112 1    
    99   50   51 2    
   100   50   52 1    
   101   52   53 1    
   102   52   54 1    
   103   52  113 1    
   104   53  114 1    
   105   53  115 1    
   106   53  116 1    
   107   54   55 am   BACKBONE|DICT|INTERRES
   108   54  117 1    
   109   55   56 2    
   110   55   57 1    
   111   57   58 1    
   112   57   59 1    
   113   57  118 1    
   114   58  119 1    
   115   58  120 1    
   116   58  121 1    
   117   59   60 am   BACKBONE|DICT|INTERRES
   118   59  122 1    
   119   60   61 2    
   120   60   62 1    
   121   62   63 1    
   122   62   64 1    
   123   62  123 1    
   124   63  124 1    
   125   63  125 1    
   126   63  126 1    
   127   64   65 am   BACKBONE|DICT|INTERRES
   128   64  127 1    
   129   65   66 2    
@<TRIPOS>SUBSTRUCTURE
     1 UNK         1 GROUP             0       ****    0 ROOT    
