@<TRIPOS>MOLECULE
3R135
127   129    1
SMALL
USER_CHARGES


@<TRIPOS>ATOM
      1 CA        -84.1704   30.5595  -77.0679 C.3       0 UNK        -0.1998 
      2 C         -82.8503   29.8037  -77.0846 C.2       0 UNK         0.4909 
      3 O         -82.2444   29.6539  -78.1460 O.2       0 UNK        -0.5240 
      4 N         -82.4001   29.3289  -75.9156 N.am      1 UNK        -0.4739 
      5 CA        -81.1517   28.5728  -75.7394 C.3       1 UNK         0.0864 
      6 C6        -80.7488   28.4783  -74.2479 C.3       11 UNK        -0.0881 
      7 S7        -80.2733   30.1075  -73.5871 S.3       11 UNK        -0.2682 
      8 C8        -80.0429   29.7321  -71.8205 C.3       11 UNK         0.0289 
      9 C9        -78.7671   28.9465  -71.5388 C.ar      11 UNK        -0.0687 
     10 C10       -78.8326   27.6844  -70.9424 C.ar      11 UNK        -0.0823 
     11 C11       -77.6633   26.9959  -70.6058 C.ar      11 UNK        -0.0830 
     12 C12       -76.4200   27.5666  -70.8963 C.ar      11 UNK        -0.1021 
     13 C13       -76.3336   28.8289  -71.5042 C.ar      11 UNK        -0.0753 
     14 C14       -77.5166   29.5081  -71.8152 C.ar      11 UNK        -0.0933 
     15 C15       -75.0059   29.5248  -71.8237 C.3       11 UNK         0.0166 
     16 S16       -73.4908   28.5988  -71.3955 S.3       11 UNK        -0.2615 
     17 C17       -72.1958   29.8515  -71.6979 C.3       11 UNK        -0.0865 
     18 CA        -71.3201   29.5804  -72.9565 C.3       10 UNK         0.0862 
     19 C         -70.3528   28.3746  -72.7810 C.2       10 UNK         0.5551 
     20 N         -70.2513   27.4284  -73.7054 N.am      10 UNK        -0.7319 
     21 O         -69.6370   28.3122  -71.7838 O.2       10 UNK        -0.5018 
     22 N         -72.0890   29.6037  -74.2124 N.am      10 UNK        -0.4509 
     23 C         -72.5892   30.7225  -74.7564 C.2       10 UNK         0.4899 
     24 O         -72.4526   31.8403  -74.2551 O.2       10 UNK        -0.4839 
     25 CA        -73.3841   30.5757  -76.0698 C.3       9 UNK         0.0222 
     26 CB        -73.6433   31.9238  -76.7764 C.3       9 UNK        -0.1966 
     27 N         -72.7942   29.6069  -76.9982 N.am      9 UNK        -0.4218 
     28 C         -71.5635   29.6326  -77.5385 C.2       9 UNK         0.5020 
     29 O         -70.7653   30.5567  -77.3726 O.2       9 UNK        -0.5274 
     30 CA        -71.1459   28.4304  -78.4192 C.3       8 UNK         0.0270 
     31 CB        -69.6523   28.0778  -78.2478 C.3       8 UNK        -0.1976 
     32 N         -71.9808   27.2305  -78.2503 N.am      8 UNK        -0.4313 
     33 C         -72.1799   26.5482  -77.1145 C.2       8 UNK         0.5041 
     34 O         -71.6410   26.8237  -76.0399 O.2       8 UNK        -0.5577 
     35 CA        -73.2264   25.4222  -77.1665 C.3       7 UNK         0.0284 
     36 CB        -72.5490   24.0471  -77.0665 C.3       7 UNK        -0.1958 
     37 N         -74.2046   25.5648  -76.0847 N.am      7 UNK        -0.4454 
     38 C         -74.9506   26.6571  -75.8587 C.2       7 UNK         0.5089 
     39 O         -74.9816   27.6217  -76.6262 O.2       7 UNK        -0.5125 
     40 CA        -75.7827   26.7046  -74.5654 C.3       6 UNK         0.0408 
     41 CB        -77.1835   27.2811  -74.8085 C.3       6 UNK        -0.1791 
     42 N         -75.9177   25.4044  -73.9082 N.am      6 UNK        -0.4762 
     43 C         -75.0529   24.8996  -73.0167 C.2       6 UNK         0.5007 
     44 O         -74.0011   25.4507  -72.6981 O.2       6 UNK        -0.5032 
     45 CA        -75.3956   23.5320  -72.3918 C.3       5 UNK         0.0783 
     46 C46       -76.0228   23.6930  -70.9840 C.3       11 UNK        -0.0857 
     47 S47       -77.7691   24.2415  -70.9996 S.3       11 UNK        -0.2512 
     48 C48       -77.7524   25.6667  -69.8680 C.3       11 UNK         0.0225 
     49 N         -76.2169   22.6871  -73.2636 N.am      5 UNK        -0.4615 
     50 C         -75.8378   22.2026  -74.4525 C.2       4 UNK         0.5053 
     51 O         -74.7102   22.3564  -74.9212 O.2       4 UNK        -0.5105 
     52 CA        -76.8963   21.4376  -75.2678 C.3       4 UNK         0.0263 
     53 CB        -76.6960   19.9214  -75.1128 C.3       4 UNK        -0.1981 
     54 N         -78.2864   21.7781  -74.9344 N.am      4 UNK        -0.4224 
     55 C         -78.8466   22.9828  -75.1108 C.2       3 UNK         0.4895 
     56 O         -78.2334   23.9755  -75.5094 O.2       3 UNK        -0.5091 
     57 CA        -80.3305   23.1049  -74.7512 C.3       3 UNK         0.0250 
     58 CB        -80.5107   23.5458  -73.2883 C.3       3 UNK        -0.1996 
     59 N         -80.9486   24.0818  -75.6412 N.am      3 UNK        -0.4254 
     60 C         -82.2370   24.1111  -75.9966 C.2       2 UNK         0.5004 
     61 O         -83.0767   23.3141  -75.5726 O.2       2 UNK        -0.5226 
     62 CA        -82.6569   25.2288  -76.9738 C.3       2 UNK         0.0269 
     63 CB        -84.1393   25.1360  -77.3832 C.3       2 UNK        -0.1926 
     64 N         -82.4061   26.5631  -76.4218 N.am      2 UNK        -0.4687 
     65 C         -81.2110   27.1681  -76.3728 C.2       1 UNK         0.5165 
     66 O         -80.1778   26.6545  -76.8031 O.2       1 UNK        -0.5079 
     67 H67       -84.0265   31.5736  -77.4400 H         1 UNK         0.0900 
     68 H68       -84.8963   30.0606  -77.7094 H         1 UNK         0.0900 
     69 H69       -84.5915   30.6234  -76.0648 H         1 UNK         0.0900 
     70 H70       -82.9253   29.5082  -75.0714 H         1 UNK         0.2959 
     71 H71       -80.3618   29.1088  -76.2714 H         1 UNK         0.1079 
     72 H72       -79.9074   27.8003  -74.1099 H         1 UNK         0.0837 
     73 H73       -81.5662   28.0695  -73.6508 H         1 UNK         0.0837 
     74 H74       -80.9218   29.2035  -71.4481 H         1 UNK         0.0685 
     75 H75       -79.9994   30.6727  -71.2700 H         1 UNK         0.0685 
     76 H76       -79.7949   27.2493  -70.7091 H         1 UNK         0.1434 
     77 H77       -75.5264   27.0210  -70.6306 H         1 UNK         0.1329 
     78 H78       -77.4671   30.4891  -72.2684 H         1 UNK         0.1335 
     79 H79       -74.9875   30.4787  -71.2948 H         1 UNK         0.0680 
     80 H80       -74.9766   29.7564  -72.8894 H         1 UNK         0.0680 
     81 H81       -71.5675   29.9062  -70.8071 H         1 UNK         0.1032 
     82 H82       -72.6548   30.8378  -71.7716 H         1 UNK         0.1032 
     83 H83       -70.6272   30.4214  -73.0266 H         1 UNK         0.0461 
     84 H84       -69.5983   26.6802  -73.5411 H         1 UNK         0.3453 
     85 H85       -70.8191   27.3949  -74.5496 H         1 UNK         0.3453 
     86 H86       -72.2104   28.7162  -74.6817 H         1 UNK         0.2984 
     87 H87       -74.3546   30.1676  -75.7843 H         1 UNK         0.0554 
     88 H88       -74.2023   32.6028  -76.1312 H         1 UNK         0.0847 
     89 H89       -74.2290   31.7892  -77.6856 H         1 UNK         0.0847 
     90 H90       -72.7136   32.4253  -77.0467 H         1 UNK         0.0847 
     91 H91       -73.3749   28.7925  -77.1736 H         1 UNK         0.3141 
     92 H92       -71.2908   28.7554  -79.4505 H         1 UNK         0.0743 
     93 H93       -69.0151   28.9196  -78.5217 H         1 UNK         0.0784 
     94 H94       -69.4147   27.8143  -77.2165 H         1 UNK         0.0784 
     95 H95       -69.3666   27.2391  -78.8827 H         1 UNK         0.0784 
     96 H96       -72.4956   26.9451  -79.0730 H         1 UNK         0.3213 
     97 H97       -73.7697   25.4762  -78.1120 H         1 UNK         0.0855 
     98 H98       -72.0292   23.9235  -76.1153 H         1 UNK         0.0814 
     99 H99       -71.8134   23.9141  -77.8608 H         1 UNK         0.0814 
    100 H100      -73.2749   23.2390  -77.1587 H         1 UNK         0.0814 
    101 H101      -74.2327   24.8245  -75.3975 H         1 UNK         0.3105 
    102 H102      -75.2621   27.3859  -73.8905 H         1 UNK         0.0547 
    103 H103      -77.7517   26.6785  -75.5174 H         1 UNK         0.0837 
    104 H104      -77.1345   28.2971  -75.2017 H         1 UNK         0.0837 
    105 H105      -77.7400   27.3235  -73.8739 H         1 UNK         0.0837 
    106 H106      -76.7315   24.8570  -74.1655 H         1 UNK         0.3020 
    107 H107      -74.4400   23.0174  -72.2654 H         1 UNK         0.1245 
    108 H108      -75.4176   24.3651  -70.3728 H         1 UNK         0.0781 
    109 H109      -75.9925   22.7321  -70.4683 H         1 UNK         0.0781 
    110 H110      -76.9399   25.5761  -69.1459 H         1 UNK         0.0836 
    111 H111      -78.6689   25.6401  -69.2766 H         1 UNK         0.0836 
    112 H112      -77.1635   22.5252  -72.9528 H         1 UNK         0.3022 
    113 H113      -76.7380   21.6972  -76.3168 H         1 UNK         0.0747 
    114 H114      -77.3701   19.3624  -75.7622 H         1 UNK         0.0793 
    115 H115      -75.6787   19.6323  -75.3813 H         1 UNK         0.0793 
    116 H116      -76.8672   19.5940  -74.0865 H         1 UNK         0.0793 
    117 H117      -78.8599   21.0237  -74.5839 H         1 UNK         0.3047 
    118 H118      -80.8063   22.1330  -74.9004 H         1 UNK         0.0822 
    119 H119      -81.5651   23.6182  -73.0214 H         1 UNK         0.0807 
    120 H120      -80.0525   24.5187  -73.1037 H         1 UNK         0.0807 
    121 H121      -80.0537   22.8310  -72.6030 H         1 UNK         0.0807 
    122 H122      -80.3116   24.7699  -76.0365 H         1 UNK         0.2946 
    123 H123      -82.0563   25.1028  -77.8779 H         1 UNK         0.1144 
    124 H124      -84.3958   25.8987  -78.1189 H         1 UNK         0.0793 
    125 H125      -84.8043   25.2578  -76.5273 H         1 UNK         0.0793 
    126 H126      -84.3607   24.1675  -77.8338 H         1 UNK         0.0793 
    127 H127      -83.2003   27.0489  -76.0308 H         1 UNK         0.2896 
@<TRIPOS>BOND
     1    1    2 1    
     2    1   67 1    
     3    1   68 1    
     4    1   69 1    
     5    2    3 2    
     6    2    4 am   BACKBONE|DICT|INTERRES
     7    4    5 1    
     8    4   70 1    
     9    5    6 1    
    10    5   65 1    
    11    5   71 1    
    12    6    7 1    
    13    6   72 1    
    14    6   73 1    
    15    7    8 1    
    16    8    9 1    
    17    8   74 1    
    18    8   75 1    
    19    9   10 ar   
    20    9   14 ar   
    21   10   11 ar   
    22   10   76 1    
    23   11   12 ar   
    24   11   48 1    
    25   12   13 ar   
    26   12   77 1    
    27   13   14 ar   
    28   13   15 1    
    29   14   78 1    
    30   15   16 1    
    31   15   79 1    
    32   15   80 1    
    33   16   17 1    
    34   17   18 1    
    35   17   81 1    
    36   17   82 1    
    37   18   19 1    
    38   18   22 1    
    39   18   83 1    
    40   19   20 am   BACKBONE|DICT|INTERRES
    41   19   21 2    
    42   20   84 1    
    43   20   85 1    
    44   22   23 am   BACKBONE|DICT|INTERRES
    45   22   86 1    
    46   23   24 2    
    47   23   25 1    
    48   25   26 1    
    49   25   27 1    
    50   25   87 1    
    51   26   88 1    
    52   26   89 1    
    53   26   90 1    
    54   27   28 am   BACKBONE|DICT|INTERRES
    55   27   91 1    
    56   28   29 2    
    57   28   30 1    
    58   30   31 1    
    59   30   32 1    
    60   30   92 1    
    61   31   93 1    
    62   31   94 1    
    63   31   95 1    
    64   32   33 am   BACKBONE|DICT|INTERRES
    65   32   96 1    
    66   33   34 2    
    67   33   35 1    
    68   35   36 1    
    69   35   37 1    
    70   35   97 1    
    71   36   98 1    
    72   36   99 1    
    73   36  100 1    
    74   37   38 am   BACKBONE|DICT|INTERRES
    75   37  101 1    
    76   38   39 2    
    77   38   40 1    
    78   40   41 1    
    79   40   42 1    
    80   40  102 1    
    81   41  103 1    
    82   41  104 1    
    83   41  105 1    
    84   42   43 am   BACKBONE|DICT|INTERRES
    85   42  106 1    
    86   43   44 2    
    87   43   45 1    
    88   45   46 1    
    89   45   49 1    
    90   45  107 1    
    91   46   47 1    
    92   46  108 1    
    93   46  109 1    
    94   47   48 1    
    95   48  110 1    
    96   48  111 1    
    97   49   50 am   BACKBONE|DICT|INTERRES
    98   49  112 1    
    99   50   51 2    
   100   50   52 1    
   101   52   53 1    
   102   52   54 1    
   103   52  113 1    
   104   53  114 1    
   105   53  115 1    
   106   53  116 1    
   107   54   55 am   BACKBONE|DICT|INTERRES
   108   54  117 1    
   109   55   56 2    
   110   55   57 1    
   111   57   58 1    
   112   57   59 1    
   113   57  118 1    
   114   58  119 1    
   115   58  120 1    
   116   58  121 1    
   117   59   60 am   BACKBONE|DICT|INTERRES
   118   59  122 1    
   119   60   61 2    
   120   60   62 1    
   121   62   63 1    
   122   62   64 1    
   123   62  123 1    
   124   63  124 1    
   125   63  125 1    
   126   63  126 1    
   127   64   65 am   BACKBONE|DICT|INTERRES
   128   64  127 1    
   129   65   66 2    
@<TRIPOS>SUBSTRUCTURE
     1 UNK         1 GROUP             0       ****    0 ROOT    
