@<TRIPOS>MOLECULE
3R135
127   129    1
SMALL
USER_CHARGES


@<TRIPOS>ATOM
      1 CA        -83.1219   29.0858  -72.0339 C.3       0 UNK        -0.1998 
      2 C         -82.1322   28.3535  -72.9265 C.2       0 UNK         0.4909 
      3 O         -81.4988   27.3993  -72.4752 O.2       0 UNK        -0.5240 
      4 N         -82.0010   28.7940  -74.1862 N.am      1 UNK        -0.4739 
      5 CA        -81.1137   28.2892  -75.2498 C.3       1 UNK         0.0864 
      6 C6        -79.6015   28.3539  -74.9076 C.3       11 UNK        -0.0881 
      7 S7        -79.0073   30.0623  -74.6512 S.3       11 UNK        -0.2682 
      8 C8        -78.8111   30.1710  -72.8430 C.3       11 UNK         0.0289 
      9 C9        -77.7422   29.2250  -72.3160 C.ar      11 UNK        -0.0687 
     10 C10       -78.1107   28.0605  -71.6375 C.ar      11 UNK        -0.0823 
     11 C11       -77.1399   27.1758  -71.1625 C.ar      11 UNK        -0.0830 
     12 C12       -75.7871   27.4872  -71.3315 C.ar      11 UNK        -0.1021 
     13 C13       -75.4050   28.6342  -72.0334 C.ar      11 UNK        -0.0753 
     14 C14       -76.3874   29.5051  -72.5159 C.ar      11 UNK        -0.0933 
     15 C15       -73.9346   28.8816  -72.3307 C.3       11 UNK         0.0166 
     16 S16       -73.2780   30.3409  -71.4682 S.3       11 UNK        -0.2615 
     17 C17       -73.3465   31.6143  -72.7809 C.3       11 UNK        -0.0865 
     18 CA        -71.9508   32.0748  -73.2813 C.3       10 UNK         0.0862 
     19 C         -71.1781   32.8864  -72.1972 C.2       10 UNK         0.5551 
     20 N         -70.0287   32.4286  -71.7151 N.am      10 UNK        -0.7319 
     21 O         -71.6271   33.9585  -71.7984 O.2       10 UNK        -0.5018 
     22 N         -71.1941   30.9783  -73.9149 N.am      10 UNK        -0.4509 
     23 C         -70.1531   31.1505  -74.7401 C.2       10 UNK         0.4899 
     24 O         -69.7451   32.2552  -75.0999 O.2       10 UNK        -0.4839 
     25 CA        -69.4348   29.8931  -75.2636 C.3       9 UNK         0.0222 
     26 CB        -68.5570   29.2484  -74.1716 C.3       9 UNK        -0.1966 
     27 N         -70.3198   28.9169  -75.9144 N.am      9 UNK        -0.4218 
     28 C         -71.2604   28.1419  -75.3591 C.2       9 UNK         0.5020 
     29 O         -71.5054   28.1082  -74.1524 O.2       9 UNK        -0.5274 
     30 CA        -72.0531   27.2377  -76.3189 C.3       8 UNK         0.0270 
     31 CB        -71.7181   25.7582  -76.0712 C.3       8 UNK        -0.1976 
     32 N         -73.5009   27.4318  -76.2050 N.am      8 UNK        -0.4313 
     33 C         -74.1456   28.5761  -76.4838 C.2       8 UNK         0.5041 
     34 O         -73.5708   29.6055  -76.8440 O.2       8 UNK        -0.5577 
     35 CA        -75.6856   28.5741  -76.3570 C.3       7 UNK         0.0284 
     36 CB        -76.3476   29.6623  -77.2297 C.3       7 UNK        -0.1958 
     37 N         -76.2948   27.2626  -76.6137 N.am      7 UNK        -0.4454 
     38 C         -76.2325   26.5343  -77.7401 C.2       7 UNK         0.5089 
     39 O         -75.6976   26.9216  -78.7798 O.2       7 UNK        -0.5125 
     40 CA        -76.8669   25.1262  -77.6893 C.3       6 UNK         0.0408 
     41 CB        -76.1322   24.1233  -78.6024 C.3       6 UNK        -0.1791 
     42 N         -77.0080   24.5707  -76.3349 N.am      6 UNK        -0.4762 
     43 C         -76.0343   24.3438  -75.4377 C.2       6 UNK         0.5007 
     44 O         -74.8510   24.6275  -75.6273 O.2       6 UNK        -0.5032 
     45 CA        -76.4576   23.7485  -74.0840 C.3       5 UNK         0.0783 
     46 C46       -76.9899   24.8644  -73.1553 C.3       11 UNK        -0.0857 
     47 S47       -76.8928   24.3872  -71.3958 S.3       11 UNK        -0.2512 
     48 C48       -77.5619   25.8544  -70.5291 C.3       11 UNK         0.0225 
     49 N         -77.4505   22.6926  -74.2840 N.am      5 UNK        -0.4615 
     50 C         -77.1874   21.3800  -74.2673 C.2       4 UNK         0.5053 
     51 O         -76.0819   20.9033  -74.0090 O.2       4 UNK        -0.5105 
     52 CA        -78.3535   20.4294  -74.6018 C.3       4 UNK         0.0263 
     53 CB        -79.0717   19.9897  -73.3157 C.3       4 UNK        -0.1981 
     54 N         -79.3296   21.0198  -75.5214 N.am      4 UNK        -0.4224 
     55 C         -79.0814   21.3283  -76.8025 C.2       3 UNK         0.4895 
     56 O         -78.0386   21.0318  -77.3856 O.2       3 UNK        -0.5091 
     57 CA        -80.1624   22.1199  -77.5637 C.3       3 UNK         0.0250 
     58 CB        -80.9415   21.1890  -78.5073 C.3       3 UNK        -0.1996 
     59 N         -81.1159   22.8558  -76.7205 N.am      3 UNK        -0.4254 
     60 C         -80.8018   23.8310  -75.8565 C.2       2 UNK         0.5004 
     61 O         -79.6444   24.1559  -75.5790 O.2       2 UNK        -0.5226 
     62 CA        -81.9744   24.5184  -75.1398 C.3       2 UNK         0.0269 
     63 CB        -82.2800   23.7985  -73.8165 C.3       2 UNK        -0.1926 
     64 N         -81.6877   25.9249  -74.8542 N.am      2 UNK        -0.4687 
     65 C         -81.5023   26.8866  -75.7665 C.2       1 UNK         0.5165 
     66 O         -81.6387   26.7077  -76.9779 O.2       1 UNK        -0.5079 
     67 H67       -83.6087   29.9108  -72.5534 H         1 UNK         0.0900 
     68 H68       -82.6095   29.4897  -71.1612 H         1 UNK         0.0900 
     69 H69       -83.8938   28.3987  -71.6884 H         1 UNK         0.0900 
     70 H70       -82.5789   29.5714  -74.4747 H         1 UNK         0.2959 
     71 H71       -81.2760   28.9617  -76.0942 H         1 UNK         0.1079 
     72 H72       -79.3694   27.7302  -74.0452 H         1 UNK         0.0837 
     73 H73       -79.0154   27.9424  -75.7313 H         1 UNK         0.0837 
     74 H74       -78.5409   31.1953  -72.5827 H         1 UNK         0.0685 
     75 H75       -79.7702   29.9810  -72.3611 H         1 UNK         0.0685 
     76 H76       -79.1582   27.8287  -71.5046 H         1 UNK         0.1434 
     77 H77       -75.0349   26.7972  -70.9739 H         1 UNK         0.1329 
     78 H78       -76.1022   30.3925  -73.0628 H         1 UNK         0.1335 
     79 H79       -73.3360   28.0174  -72.0385 H         1 UNK         0.0680 
     80 H80       -73.8049   28.9830  -73.4077 H         1 UNK         0.0680 
     81 H81       -73.9107   32.4664  -72.3970 H         1 UNK         0.1032 
     82 H82       -73.9280   31.2504  -73.6285 H         1 UNK         0.1032 
     83 H83       -72.1457   32.7973  -74.0764 H         1 UNK         0.0461 
     84 H84       -69.6619   31.5464  -72.0326 H         1 UNK         0.3453 
     85 H85       -69.5346   32.9633  -71.0185 H         1 UNK         0.3453 
     86 H86       -71.4648   30.0287  -73.6764 H         1 UNK         0.2984 
     87 H87       -68.7594   30.2302  -76.0518 H         1 UNK         0.0554 
     88 H88       -67.9961   28.4003  -74.5641 H         1 UNK         0.0847 
     89 H89       -69.1433   28.8965  -73.3225 H         1 UNK         0.0847 
     90 H90       -67.8307   29.9650  -73.7857 H         1 UNK         0.0847 
     91 H91       -70.2336   28.8822  -76.9212 H         1 UNK         0.3141 
     92 H92       -71.7731   27.4798  -77.3463 H         1 UNK         0.0743 
     93 H93       -72.0169   25.4408  -75.0710 H         1 UNK         0.0784 
     94 H94       -72.2215   25.1112  -76.7902 H         1 UNK         0.0784 
     95 H95       -70.6466   25.5774  -76.1655 H         1 UNK         0.0784 
     96 H96       -74.0407   26.6204  -75.9256 H         1 UNK         0.3213 
     97 H97       -75.9044   28.8103  -75.3149 H         1 UNK         0.0855 
     98 H98       -76.0464   30.6588  -76.9046 H         1 UNK         0.0814 
     99 H99       -77.4344   29.6181  -77.1699 H         1 UNK         0.0814 
    100 H100      -76.0677   29.5645  -78.2789 H         1 UNK         0.0814 
    101 H101      -76.7552   26.8325  -75.8251 H         1 UNK         0.3105 
    102 H102      -77.8822   25.2398  -78.0720 H         1 UNK         0.0547 
    103 H103      -76.1477   24.4521  -79.6421 H         1 UNK         0.0837 
    104 H104      -75.0871   24.0061  -78.3140 H         1 UNK         0.0837 
    105 H105      -76.6011   23.1400  -78.5696 H         1 UNK         0.0837 
    106 H106      -77.9684   24.3651  -76.0569 H         1 UNK         0.3020 
    107 H107      -75.5514   23.3314  -73.6376 H         1 UNK         0.1245 
    108 H108      -78.0181   25.1363  -73.4036 H         1 UNK         0.0781 
    109 H109      -76.3942   25.7681  -73.2870 H         1 UNK         0.0781 
    110 H110      -77.2340   25.8337  -69.4891 H         1 UNK         0.0836 
    111 H111      -78.6497   25.7700  -70.5085 H         1 UNK         0.0836 
    112 H112      -78.3786   23.0036  -74.5482 H         1 UNK         0.3022 
    113 H113      -77.9308   19.5433  -75.0803 H         1 UNK         0.0747 
    114 H114      -79.8539   19.2602  -73.5266 H         1 UNK         0.0793 
    115 H115      -78.3732   19.5214  -72.6206 H         1 UNK         0.0793 
    116 H116      -79.5283   20.8345  -72.7982 H         1 UNK         0.0793 
    117 H117      -80.2230   21.2833  -75.1331 H         1 UNK         0.3047 
    118 H118      -79.6364   22.8586  -78.1726 H         1 UNK         0.0822 
    119 H119      -81.6310   21.7490  -79.1394 H         1 UNK         0.0807 
    120 H120      -81.5177   20.4452  -77.9555 H         1 UNK         0.0807 
    121 H121      -80.2648   20.6493  -79.1717 H         1 UNK         0.0807 
    122 H122      -82.0916   22.6349  -76.8622 H         1 UNK         0.2946 
    123 H123      -82.8559   24.4783  -75.7835 H         1 UNK         0.1144 
    124 H124      -82.5346   22.7514  -73.9858 H         1 UNK         0.0793 
    125 H125      -83.1254   24.2567  -73.3026 H         1 UNK         0.0793 
    126 H126      -81.4250   23.8229  -73.1389 H         1 UNK         0.0793 
    127 H127      -81.5554   26.1865  -73.8799 H         1 UNK         0.2896 
@<TRIPOS>BOND
     1    1    2 1    
     2    1   67 1    
     3    1   68 1    
     4    1   69 1    
     5    2    3 2    
     6    2    4 am   BACKBONE|DICT|INTERRES
     7    4    5 1    
     8    4   70 1    
     9    5    6 1    
    10    5   65 1    
    11    5   71 1    
    12    6    7 1    
    13    6   72 1    
    14    6   73 1    
    15    7    8 1    
    16    8    9 1    
    17    8   74 1    
    18    8   75 1    
    19    9   10 ar   
    20    9   14 ar   
    21   10   11 ar   
    22   10   76 1    
    23   11   12 ar   
    24   11   48 1    
    25   12   13 ar   
    26   12   77 1    
    27   13   14 ar   
    28   13   15 1    
    29   14   78 1    
    30   15   16 1    
    31   15   79 1    
    32   15   80 1    
    33   16   17 1    
    34   17   18 1    
    35   17   81 1    
    36   17   82 1    
    37   18   19 1    
    38   18   22 1    
    39   18   83 1    
    40   19   20 am   BACKBONE|DICT|INTERRES
    41   19   21 2    
    42   20   84 1    
    43   20   85 1    
    44   22   23 am   BACKBONE|DICT|INTERRES
    45   22   86 1    
    46   23   24 2    
    47   23   25 1    
    48   25   26 1    
    49   25   27 1    
    50   25   87 1    
    51   26   88 1    
    52   26   89 1    
    53   26   90 1    
    54   27   28 am   BACKBONE|DICT|INTERRES
    55   27   91 1    
    56   28   29 2    
    57   28   30 1    
    58   30   31 1    
    59   30   32 1    
    60   30   92 1    
    61   31   93 1    
    62   31   94 1    
    63   31   95 1    
    64   32   33 am   BACKBONE|DICT|INTERRES
    65   32   96 1    
    66   33   34 2    
    67   33   35 1    
    68   35   36 1    
    69   35   37 1    
    70   35   97 1    
    71   36   98 1    
    72   36   99 1    
    73   36  100 1    
    74   37   38 am   BACKBONE|DICT|INTERRES
    75   37  101 1    
    76   38   39 2    
    77   38   40 1    
    78   40   41 1    
    79   40   42 1    
    80   40  102 1    
    81   41  103 1    
    82   41  104 1    
    83   41  105 1    
    84   42   43 am   BACKBONE|DICT|INTERRES
    85   42  106 1    
    86   43   44 2    
    87   43   45 1    
    88   45   46 1    
    89   45   49 1    
    90   45  107 1    
    91   46   47 1    
    92   46  108 1    
    93   46  109 1    
    94   47   48 1    
    95   48  110 1    
    96   48  111 1    
    97   49   50 am   BACKBONE|DICT|INTERRES
    98   49  112 1    
    99   50   51 2    
   100   50   52 1    
   101   52   53 1    
   102   52   54 1    
   103   52  113 1    
   104   53  114 1    
   105   53  115 1    
   106   53  116 1    
   107   54   55 am   BACKBONE|DICT|INTERRES
   108   54  117 1    
   109   55   56 2    
   110   55   57 1    
   111   57   58 1    
   112   57   59 1    
   113   57  118 1    
   114   58  119 1    
   115   58  120 1    
   116   58  121 1    
   117   59   60 am   BACKBONE|DICT|INTERRES
   118   59  122 1    
   119   60   61 2    
   120   60   62 1    
   121   62   63 1    
   122   62   64 1    
   123   62  123 1    
   124   63  124 1    
   125   63  125 1    
   126   63  126 1    
   127   64   65 am   BACKBONE|DICT|INTERRES
   128   64  127 1    
   129   65   66 2    
@<TRIPOS>SUBSTRUCTURE
     1 UNK         1 GROUP             0       ****    0 ROOT    
