@<TRIPOS>MOLECULE
3R135
127   129    1
SMALL
USER_CHARGES


@<TRIPOS>ATOM
      1 CA        -83.9384   23.8285  -73.9649 C.3       0 UNK        -0.1998 
      2 C         -83.1100   25.0914  -74.1406 C.2       0 UNK         0.4909 
      3 O         -82.8642   25.5121  -75.2717 O.2       0 UNK        -0.5240 
      4 N         -82.6812   25.7030  -73.0283 N.am      1 UNK        -0.4739 
      5 CA        -81.8997   26.9444  -73.0088 C.3       1 UNK         0.0864 
      6 C6        -81.7934   27.5289  -71.5790 C.3       11 UNK        -0.0881 
      7 S7        -81.5501   29.3384  -71.5994 S.3       11 UNK        -0.2682 
      8 C8        -80.1642   29.5580  -70.4397 C.3       11 UNK         0.0289 
      9 C9        -78.8299   29.1247  -71.0310 C.ar      11 UNK        -0.0687 
     10 C10       -78.2477   27.9126  -70.6470 C.ar      11 UNK        -0.0823 
     11 C11       -76.9972   27.5353  -71.1451 C.ar      11 UNK        -0.0830 
     12 C12       -76.3332   28.3744  -72.0436 C.ar      11 UNK        -0.1021 
     13 C13       -76.9019   29.5914  -72.4313 C.ar      11 UNK        -0.0753 
     14 C14       -78.1517   29.9607  -71.9242 C.ar      11 UNK        -0.0933 
     15 C15       -76.1478   30.5096  -73.3795 C.3       11 UNK         0.0166 
     16 S16       -74.8725   31.4377  -72.4765 S.3       11 UNK        -0.2615 
     17 C17       -73.9128   32.2238  -73.8215 C.3       11 UNK        -0.0865 
     18 CA        -73.2227   31.2426  -74.8213 C.3       10 UNK         0.0862 
     19 C         -72.2843   31.9579  -75.8371 C.2       10 UNK         0.5551 
     20 N         -71.5133   31.2174  -76.6225 N.am      10 UNK        -0.7319 
     21 O         -72.2581   33.1834  -75.9288 O.2       10 UNK        -0.5018 
     22 N         -72.6012   30.0760  -74.1731 N.am      10 UNK        -0.4509 
     23 C         -71.6132   30.0961  -73.2681 C.2       10 UNK         0.4899 
     24 O         -71.0376   31.1161  -72.8882 O.2       10 UNK        -0.4839 
     25 CA        -71.2222   28.7396  -72.6548 C.3       9 UNK         0.0222 
     26 CB        -72.0219   28.4917  -71.3645 C.3       9 UNK        -0.1966 
     27 N         -71.4452   27.6282  -73.5838 N.am      9 UNK        -0.4218 
     28 C         -70.5813   27.2669  -74.5415 C.2       9 UNK         0.5020 
     29 O         -69.4577   27.7533  -74.6783 O.2       9 UNK        -0.5274 
     30 CA        -71.0682   26.1968  -75.5323 C.3       8 UNK         0.0270 
     31 CB        -70.9411   24.7901  -74.9257 C.3       8 UNK        -0.1976 
     32 N         -72.4414   26.4137  -76.0056 N.am      8 UNK        -0.4313 
     33 C         -72.8393   27.4788  -76.7228 C.2       8 UNK         0.5041 
     34 O         -72.1072   28.4415  -76.9564 O.2       8 UNK        -0.5577 
     35 CA        -74.2895   27.5004  -77.2562 C.3       7 UNK         0.0284 
     36 CB        -74.4182   28.2833  -78.5788 C.3       7 UNK        -0.1958 
     37 N         -74.9092   26.1777  -77.3823 N.am      7 UNK        -0.4454 
     38 C         -74.4696   25.1145  -78.0727 C.2       7 UNK         0.5089 
     39 O         -73.4904   25.1369  -78.8200 O.2       7 UNK        -0.5125 
     40 CA        -75.2349   23.7917  -77.8488 C.3       6 UNK         0.0408 
     41 CB        -74.3473   22.5534  -78.0896 C.3       6 UNK        -0.1791 
     42 N         -75.8877   23.6976  -76.5337 N.am      6 UNK        -0.4762 
     43 C         -75.3197   23.8153  -75.3202 C.2       6 UNK         0.5007 
     44 O         -74.1167   24.0285  -75.1606 O.2       6 UNK        -0.5032 
     45 CA        -76.2339   23.7319  -74.0751 C.3       5 UNK         0.0783 
     46 C46       -76.0655   24.9822  -73.1768 C.3       11 UNK        -0.0857 
     47 S47       -76.9585   24.8009  -71.5978 S.3       11 UNK        -0.2512 
     48 C48       -76.3481   26.2422  -70.6747 C.3       11 UNK         0.0225 
     49 N         -77.6418   23.5203  -74.4261 N.am      5 UNK        -0.4615 
     50 C         -78.1964   22.3401  -74.7238 C.2       4 UNK         0.5053 
     51 O         -77.5952   21.2672  -74.6790 O.2       4 UNK        -0.5105 
     52 CA        -79.6593   22.3737  -75.1959 C.3       4 UNK         0.0263 
     53 CB        -80.6172   22.2298  -74.0039 C.3       4 UNK        -0.1981 
     54 N         -79.9735   23.5920  -75.9532 N.am      4 UNK        -0.4224 
     55 C         -79.4870   23.8577  -77.1757 C.2       3 UNK         0.4895 
     56 O         -78.7812   23.0762  -77.8129 O.2       3 UNK        -0.5091 
     57 CA        -79.7906   25.2413  -77.7720 C.3       3 UNK         0.0250 
     58 CB        -81.1549   25.2441  -78.4790 C.3       3 UNK        -0.1996 
     59 N         -79.7449   26.3129  -76.7753 N.am      3 UNK        -0.4254 
     60 C         -78.6295   26.7254  -76.1540 C.2       2 UNK         0.5004 
     61 O         -77.5119   26.2610  -76.3692 O.2       2 UNK        -0.5226 
     62 CA        -78.7795   27.8234  -75.0902 C.3       2 UNK         0.0269 
     63 CB        -78.5790   29.2073  -75.7266 C.3       2 UNK        -0.1926 
     64 N         -80.0617   27.7937  -74.3838 N.am      2 UNK        -0.4687 
     65 C         -80.5140   26.7601  -73.6611 C.2       1 UNK         0.5165 
     66 O         -79.8995   25.6991  -73.5208 O.2       1 UNK        -0.5079 
     67 H67       -84.9990   24.0771  -73.9454 H         1 UNK         0.0900 
     68 H68       -83.7683   23.1427  -74.7944 H         1 UNK         0.0900 
     69 H69       -83.6880   23.3104  -73.0393 H         1 UNK         0.0900 
     70 H70       -82.8830   25.2935  -72.1275 H         1 UNK         0.2959 
     71 H71       -82.4632   27.6506  -73.6236 H         1 UNK         0.1079 
     72 H72       -81.0105   27.0315  -71.0038 H         1 UNK         0.0837 
     73 H73       -82.7199   27.3507  -71.0307 H         1 UNK         0.0837 
     74 H74       -80.3748   29.0175  -69.5154 H         1 UNK         0.0685 
     75 H75       -80.1061   30.6121  -70.1644 H         1 UNK         0.0685 
     76 H76       -78.7583   27.2673  -69.9455 H         1 UNK         0.1434 
     77 H77       -75.3626   28.0925  -72.4265 H         1 UNK         0.1329 
     78 H78       -78.5925   30.9051  -72.2128 H         1 UNK         0.1335 
     79 H79       -75.6940   29.9091  -74.1678 H         1 UNK         0.0680 
     80 H80       -76.8259   31.2109  -73.8677 H         1 UNK         0.0680 
     81 H81       -73.1601   32.8551  -73.3457 H         1 UNK         0.1032 
     82 H82       -74.5711   32.9064  -74.3616 H         1 UNK         0.1032 
     83 H83       -74.0143   30.8299  -75.4466 H         1 UNK         0.0461 
     84 H84       -70.9023   31.6682  -77.2840 H         1 UNK         0.3453 
     85 H85       -71.5955   30.2023  -76.6189 H         1 UNK         0.3453 
     86 H86       -72.9588   29.1797  -74.4587 H         1 UNK         0.2984 
     87 H87       -70.1629   28.7819  -72.3921 H         1 UNK         0.0554 
     88 H88       -71.8422   29.2863  -70.6389 H         1 UNK         0.0847 
     89 H89       -71.7349   27.5523  -70.8918 H         1 UNK         0.0847 
     90 H90       -73.0961   28.4627  -71.5495 H         1 UNK         0.0847 
     91 H91       -72.3293   27.1444  -73.5286 H         1 UNK         0.3141 
     92 H92       -70.4160   26.2439  -76.4071 H         1 UNK         0.0743 
     93 H93       -69.9190   24.5964  -74.5973 H         1 UNK         0.0784 
     94 H94       -71.1984   24.0207  -75.6542 H         1 UNK         0.0784 
     95 H95       -71.5929   24.6601  -74.0609 H         1 UNK         0.0784 
     96 H96       -73.0979   25.6540  -75.8493 H         1 UNK         0.3213 
     97 H97       -74.8747   28.0309  -76.5038 H         1 UNK         0.0855 
     98 H98       -73.8135   27.8386  -79.3697 H         1 UNK         0.0814 
     99 H99       -74.0889   29.3163  -78.4592 H         1 UNK         0.0814 
    100 H100      -75.4522   28.3131  -78.9222 H         1 UNK         0.0814 
    101 H101      -75.7820   26.0599  -76.8665 H         1 UNK         0.3105 
    102 H102      -76.0375   23.7769  -78.5874 H         1 UNK         0.0547 
    103 H103      -74.9069   21.6299  -77.9421 H         1 UNK         0.0837 
    104 H104      -73.4880   22.5367  -77.4182 H         1 UNK         0.0837 
    105 H105      -73.9631   22.5371  -79.1102 H         1 UNK         0.0837 
    106 H106      -76.8910   23.5680  -76.5659 H         1 UNK         0.3020 
    107 H107      -75.8852   22.8648  -73.5094 H         1 UNK         0.1245 
    108 H108      -76.4258   25.8761  -73.6882 H         1 UNK         0.0781 
    109 H109      -75.0124   25.1562  -72.9474 H         1 UNK         0.0781 
    110 H110      -75.2615   26.3015  -70.7547 H         1 UNK         0.0836 
    111 H111      -76.5623   26.0937  -69.6152 H         1 UNK         0.0836 
    112 H112      -78.2290   24.3451  -74.4299 H         1 UNK         0.3022 
    113 H113      -79.8096   21.5157  -75.8549 H         1 UNK         0.0747 
    114 H114      -81.6446   22.1039  -74.3409 H         1 UNK         0.0793 
    115 H115      -80.3679   21.3514  -73.4068 H         1 UNK         0.0793 
    116 H116      -80.5772   23.0950  -73.3412 H         1 UNK         0.0793 
    117 H117      -80.5177   24.3024  -75.4808 H         1 UNK         0.3047 
    118 H118      -79.0220   25.4512  -78.5194 H         1 UNK         0.0822 
    119 H119      -81.3468   26.1995  -78.9677 H         1 UNK         0.0807 
    120 H120      -81.9731   25.0520  -77.7843 H         1 UNK         0.0807 
    121 H121      -81.1951   24.4733  -79.2499 H         1 UNK         0.0807 
    122 H122      -80.6257   26.7332  -76.5132 H         1 UNK         0.2946 
    123 H123      -77.9967   27.6639  -74.3464 H         1 UNK         0.1144 
    124 H124      -78.6575   30.0018  -74.9852 H         1 UNK         0.0793 
    125 H125      -79.3174   29.4049  -76.5048 H         1 UNK         0.0793 
    126 H126      -77.5921   29.2859  -76.1851 H         1 UNK         0.0793 
    127 H127      -80.6192   28.6349  -74.4270 H         1 UNK         0.2896 
@<TRIPOS>BOND
     1    1    2 1    
     2    1   67 1    
     3    1   68 1    
     4    1   69 1    
     5    2    3 2    
     6    2    4 am   BACKBONE|DICT|INTERRES
     7    4    5 1    
     8    4   70 1    
     9    5    6 1    
    10    5   65 1    
    11    5   71 1    
    12    6    7 1    
    13    6   72 1    
    14    6   73 1    
    15    7    8 1    
    16    8    9 1    
    17    8   74 1    
    18    8   75 1    
    19    9   10 ar   
    20    9   14 ar   
    21   10   11 ar   
    22   10   76 1    
    23   11   12 ar   
    24   11   48 1    
    25   12   13 ar   
    26   12   77 1    
    27   13   14 ar   
    28   13   15 1    
    29   14   78 1    
    30   15   16 1    
    31   15   79 1    
    32   15   80 1    
    33   16   17 1    
    34   17   18 1    
    35   17   81 1    
    36   17   82 1    
    37   18   19 1    
    38   18   22 1    
    39   18   83 1    
    40   19   20 am   BACKBONE|DICT|INTERRES
    41   19   21 2    
    42   20   84 1    
    43   20   85 1    
    44   22   23 am   BACKBONE|DICT|INTERRES
    45   22   86 1    
    46   23   24 2    
    47   23   25 1    
    48   25   26 1    
    49   25   27 1    
    50   25   87 1    
    51   26   88 1    
    52   26   89 1    
    53   26   90 1    
    54   27   28 am   BACKBONE|DICT|INTERRES
    55   27   91 1    
    56   28   29 2    
    57   28   30 1    
    58   30   31 1    
    59   30   32 1    
    60   30   92 1    
    61   31   93 1    
    62   31   94 1    
    63   31   95 1    
    64   32   33 am   BACKBONE|DICT|INTERRES
    65   32   96 1    
    66   33   34 2    
    67   33   35 1    
    68   35   36 1    
    69   35   37 1    
    70   35   97 1    
    71   36   98 1    
    72   36   99 1    
    73   36  100 1    
    74   37   38 am   BACKBONE|DICT|INTERRES
    75   37  101 1    
    76   38   39 2    
    77   38   40 1    
    78   40   41 1    
    79   40   42 1    
    80   40  102 1    
    81   41  103 1    
    82   41  104 1    
    83   41  105 1    
    84   42   43 am   BACKBONE|DICT|INTERRES
    85   42  106 1    
    86   43   44 2    
    87   43   45 1    
    88   45   46 1    
    89   45   49 1    
    90   45  107 1    
    91   46   47 1    
    92   46  108 1    
    93   46  109 1    
    94   47   48 1    
    95   48  110 1    
    96   48  111 1    
    97   49   50 am   BACKBONE|DICT|INTERRES
    98   49  112 1    
    99   50   51 2    
   100   50   52 1    
   101   52   53 1    
   102   52   54 1    
   103   52  113 1    
   104   53  114 1    
   105   53  115 1    
   106   53  116 1    
   107   54   55 am   BACKBONE|DICT|INTERRES
   108   54  117 1    
   109   55   56 2    
   110   55   57 1    
   111   57   58 1    
   112   57   59 1    
   113   57  118 1    
   114   58  119 1    
   115   58  120 1    
   116   58  121 1    
   117   59   60 am   BACKBONE|DICT|INTERRES
   118   59  122 1    
   119   60   61 2    
   120   60   62 1    
   121   62   63 1    
   122   62   64 1    
   123   62  123 1    
   124   63  124 1    
   125   63  125 1    
   126   63  126 1    
   127   64   65 am   BACKBONE|DICT|INTERRES
   128   64  127 1    
   129   65   66 2    
@<TRIPOS>SUBSTRUCTURE
     1 UNK         1 GROUP             0       ****    0 ROOT    
