@<TRIPOS>MOLECULE
3R135
127   129    1
SMALL
USER_CHARGES


@<TRIPOS>ATOM
      1 CA        -84.2486   31.2769  -75.7793 C.3       0 UNK        -0.1998 
      2 C         -82.8003   30.8109  -75.7893 C.2       0 UNK         0.4909 
      3 O         -81.9466   31.4743  -76.3791 O.2       0 UNK        -0.5240 
      4 N         -82.5186   29.6742  -75.1470 N.am      1 UNK        -0.4739 
      5 CA        -81.1947   29.0622  -75.0464 C.3       1 UNK         0.0864 
      6 C6        -80.2625   29.7661  -74.0226 C.3       11 UNK        -0.0881 
      7 S7        -80.9821   30.0946  -72.3717 S.3       11 UNK        -0.2682 
      8 C8        -80.3947   28.6755  -71.3771 C.3       11 UNK         0.0289 
      9 C9        -78.8778   28.4945  -71.2638 C.ar      11 UNK        -0.0687 
     10 C10       -78.3957   27.2666  -70.7994 C.ar      11 UNK        -0.0823 
     11 C11       -77.0233   27.0207  -70.7134 C.ar      11 UNK        -0.0830 
     12 C12       -76.1227   28.0135  -71.1038 C.ar      11 UNK        -0.1021 
     13 C13       -76.5815   29.2599  -71.5412 C.ar      11 UNK        -0.0753 
     14 C14       -77.9580   29.4971  -71.6040 C.ar      11 UNK        -0.0933 
     15 C15       -75.6047   30.3399  -71.9924 C.3       11 UNK         0.0166 
     16 S16       -74.1803   30.5286  -70.8728 S.3       11 UNK        -0.2615 
     17 C17       -73.1596   31.7162  -71.8110 C.3       11 UNK        -0.0865 
     18 CA        -71.9176   31.0876  -72.4977 C.3       10 UNK         0.0862 
     19 C         -70.8380   30.6123  -71.4801 C.2       10 UNK         0.5551 
     20 N         -70.4095   29.3557  -71.5033 N.am      10 UNK        -0.7319 
     21 O         -70.3675   31.4052  -70.6678 O.2       10 UNK        -0.5018 
     22 N         -72.2923   30.0898  -73.5170 N.am      10 UNK        -0.4509 
     23 C         -71.5866   29.8516  -74.6307 C.2       10 UNK         0.4899 
     24 O         -70.5538   30.4580  -74.9194 O.2       10 UNK        -0.4839 
     25 CA        -72.0869   28.7607  -75.5989 C.3       9 UNK         0.0222 
     26 CB        -71.1663   27.5325  -75.5476 C.3       9 UNK        -0.1966 
     27 N         -73.4798   28.3265  -75.4305 N.am      9 UNK        -0.4218 
     28 C         -74.5535   29.1001  -75.6434 C.2       9 UNK         0.5020 
     29 O         -74.4860   30.3053  -75.8947 O.2       9 UNK        -0.5274 
     30 CA        -75.9267   28.3998  -75.5761 C.3       8 UNK         0.0270 
     31 CB        -77.1020   29.3794  -75.7737 C.3       8 UNK        -0.1976 
     32 N         -76.0394   27.2851  -76.5257 N.am      8 UNK        -0.4313 
     33 C         -75.8667   27.3215  -77.8567 C.2       8 UNK         0.5041 
     34 O         -75.6018   28.3394  -78.4995 O.2       8 UNK        -0.5577 
     35 CA        -76.0213   25.9709  -78.5829 C.3       7 UNK         0.0284 
     36 CB        -75.7862   26.0636  -80.1057 C.3       7 UNK        -0.1958 
     37 N         -75.1837   24.9211  -77.9886 N.am      7 UNK        -0.4454 
     38 C         -73.8482   24.9307  -77.8497 C.2       7 UNK         0.5089 
     39 O         -73.1065   25.8116  -78.2865 O.2       7 UNK        -0.5125 
     40 CA        -73.2624   23.7489  -77.0530 C.3       6 UNK         0.0408 
     41 CB        -71.7497   23.8656  -76.7774 C.3       6 UNK        -0.1791 
     42 N         -73.9924   23.4991  -75.8060 N.am      6 UNK        -0.4762 
     43 C         -74.2476   24.3603  -74.8062 C.2       6 UNK         0.5007 
     44 O         -73.8544   25.5294  -74.7938 O.2       6 UNK        -0.5032 
     45 CA        -75.1257   23.8316  -73.6488 C.3       5 UNK         0.0783 
     46 C46       -75.7669   24.9775  -72.8288 C.3       11 UNK        -0.0857 
     47 S47       -76.7421   24.3529  -71.4181 S.3       11 UNK        -0.2512 
     48 C48       -76.5115   25.6828  -70.1993 C.3       11 UNK         0.0225 
     49 N         -76.1402   22.9023  -74.1573 N.am      5 UNK        -0.4615 
     50 C         -75.9918   21.5775  -74.2769 C.2       4 UNK         0.5053 
     51 O         -74.9755   20.9743  -73.9341 O.2       4 UNK        -0.5105 
     52 CA        -77.1452   20.7929  -74.9274 C.3       4 UNK         0.0263 
     53 CB        -77.9831   20.0885  -73.8481 C.3       4 UNK        -0.1981 
     54 N         -78.0322   21.6073  -75.7645 N.am      4 UNK        -0.4224 
     55 C         -77.6806   22.2597  -76.8832 C.2       3 UNK         0.4895 
     56 O         -76.5412   22.2802  -77.3500 O.2       3 UNK        -0.5091 
     57 CA        -78.7882   23.0798  -77.5613 C.3       3 UNK         0.0250 
     58 CB        -79.6603   22.1814  -78.4526 C.3       3 UNK        -0.1996 
     59 N         -79.6331   23.7926  -76.5976 N.am      3 UNK        -0.4254 
     60 C         -79.2085   24.7713  -75.7864 C.2       2 UNK         0.5004 
     61 O         -78.0525   25.2060  -75.7700 O.2       2 UNK        -0.5226 
     62 CA        -80.2405   25.3450  -74.8123 C.3       2 UNK         0.0269 
     63 CB        -79.8844   24.9886  -73.3597 C.3       2 UNK        -0.1926 
     64 N         -80.2768   26.7939  -74.9745 N.am      2 UNK        -0.4687 
     65 C         -81.3560   27.5583  -74.7686 C.2       1 UNK         0.5165 
     66 O         -82.4429   27.1193  -74.3797 O.2       1 UNK        -0.5079 
     67 H67       -84.8915   30.5958  -75.2219 H         1 UNK         0.0900 
     68 H68       -84.3217   32.2628  -75.3210 H         1 UNK         0.0900 
     69 H69       -84.6286   31.3449  -76.7984 H         1 UNK         0.0900 
     70 H70       -83.2489   29.1298  -74.7037 H         1 UNK         0.2959 
     71 H71       -80.7285   29.1332  -76.0321 H         1 UNK         0.1079 
     72 H72       -79.3348   29.2078  -73.9086 H         1 UNK         0.0837 
     73 H73       -79.9615   30.7318  -74.4312 H         1 UNK         0.0837 
     74 H74       -80.8351   27.7682  -71.7928 H         1 UNK         0.0685 
     75 H75       -80.8016   28.7783  -70.3704 H         1 UNK         0.0685 
     76 H76       -79.0915   26.4883  -70.5161 H         1 UNK         0.1434 
     77 H77       -75.0602   27.8181  -71.0588 H         1 UNK         0.1329 
     78 H78       -78.3065   30.4611  -71.9454 H         1 UNK         0.1335 
     79 H79       -76.1100   31.3036  -72.0733 H         1 UNK         0.0680 
     80 H80       -75.2492   30.0904  -72.9908 H         1 UNK         0.0680 
     81 H81       -73.7761   32.2135  -72.5615 H         1 UNK         0.1032 
     82 H82       -72.8506   32.5101  -71.1283 H         1 UNK         0.1032 
     83 H83       -71.4382   31.9139  -73.0265 H         1 UNK         0.0461 
     84 H84       -70.7864   28.7023  -72.1699 H         1 UNK         0.3453 
     85 H85       -69.7056   29.0604  -70.8453 H         1 UNK         0.3453 
     86 H86       -73.1140   29.5374  -73.3269 H         1 UNK         0.2984 
     87 H87       -72.0073   29.1863  -76.6013 H         1 UNK         0.0554 
     88 H88       -70.1145   27.8172  -75.6025 H         1 UNK         0.0847 
     89 H89       -71.3603   26.8777  -76.3956 H         1 UNK         0.0847 
     90 H90       -71.3049   26.9570  -74.6317 H         1 UNK         0.0847 
     91 H91       -73.6254   27.3368  -75.2344 H         1 UNK         0.3141 
     92 H92       -76.0158   27.9676  -74.5778 H         1 UNK         0.0743 
     93 H93       -77.1414   30.1107  -74.9655 H         1 UNK         0.0784 
     94 H94       -78.0531   28.8520  -75.7953 H         1 UNK         0.0784 
     95 H95       -77.0155   29.9320  -76.7101 H         1 UNK         0.0784 
     96 H96       -76.3117   26.3949  -76.1224 H         1 UNK         0.3213 
     97 H97       -77.0581   25.6733  -78.4315 H         1 UNK         0.0855 
     98 H98       -74.7752   26.3972  -80.3414 H         1 UNK         0.0814 
     99 H99       -76.4762   26.7735  -80.5634 H         1 UNK         0.0814 
    100 H100      -75.9438   25.1003  -80.5905 H         1 UNK         0.0814 
    101 H101      -75.6778   24.1197  -77.6073 H         1 UNK         0.3105 
    102 H102      -73.4115   22.8682  -77.6795 H         1 UNK         0.0547 
    103 H103      -71.3533   22.9328  -76.3770 H         1 UNK         0.0837 
    104 H104      -71.5275   24.6502  -76.0568 H         1 UNK         0.0837 
    105 H105      -71.1937   24.0850  -77.6897 H         1 UNK         0.0837 
    106 H106      -74.3963   22.5755  -75.7248 H         1 UNK         0.3020 
    107 H107      -74.4487   23.2931  -72.9814 H         1 UNK         0.1245 
    108 H108      -76.4181   25.5900  -73.4554 H         1 UNK         0.0781 
    109 H109      -74.9909   25.6425  -72.4460 H         1 UNK         0.0781 
    110 H110      -75.4558   25.7462  -69.9305 H         1 UNK         0.0836 
    111 H111      -77.0426   25.4195  -69.2835 H         1 UNK         0.0836 
    112 H112      -76.9911   23.3280  -74.4963 H         1 UNK         0.3022 
    113 H113      -76.6966   20.0306  -75.5678 H         1 UNK         0.0747 
    114 H114      -78.7526   19.4557  -74.2909 H         1 UNK         0.0793 
    115 H115      -77.3582   19.4463  -73.2257 H         1 UNK         0.0793 
    116 H116      -78.4735   20.8044  -73.1868 H         1 UNK         0.0793 
    117 H117      -78.9946   21.6699  -75.4663 H         1 UNK         0.3047 
    118 H118      -78.3094   23.8191  -78.2032 H         1 UNK         0.0822 
    119 H119      -80.3954   22.7661  -79.0062 H         1 UNK         0.0807 
    120 H120      -80.1971   21.4290  -77.8735 H         1 UNK         0.0807 
    121 H121      -79.0511   21.6531  -79.1876 H         1 UNK         0.0807 
    122 H122      -80.6011   23.5066  -76.5524 H         1 UNK         0.2946 
    123 H123      -81.2213   24.9250  -75.0485 H         1 UNK         0.1144 
    124 H124      -80.6590   25.3202  -72.6684 H         1 UNK         0.0793 
    125 H125      -78.9474   25.4559  -73.0578 H         1 UNK         0.0793 
    126 H126      -79.7720   23.9115  -73.2300 H         1 UNK         0.0793 
    127 H127      -79.4170   27.2006  -75.3173 H         1 UNK         0.2896 
@<TRIPOS>BOND
     1    1    2 1    
     2    1   67 1    
     3    1   68 1    
     4    1   69 1    
     5    2    3 2    
     6    2    4 am   BACKBONE|DICT|INTERRES
     7    4    5 1    
     8    4   70 1    
     9    5    6 1    
    10    5   65 1    
    11    5   71 1    
    12    6    7 1    
    13    6   72 1    
    14    6   73 1    
    15    7    8 1    
    16    8    9 1    
    17    8   74 1    
    18    8   75 1    
    19    9   10 ar   
    20    9   14 ar   
    21   10   11 ar   
    22   10   76 1    
    23   11   12 ar   
    24   11   48 1    
    25   12   13 ar   
    26   12   77 1    
    27   13   14 ar   
    28   13   15 1    
    29   14   78 1    
    30   15   16 1    
    31   15   79 1    
    32   15   80 1    
    33   16   17 1    
    34   17   18 1    
    35   17   81 1    
    36   17   82 1    
    37   18   19 1    
    38   18   22 1    
    39   18   83 1    
    40   19   20 am   BACKBONE|DICT|INTERRES
    41   19   21 2    
    42   20   84 1    
    43   20   85 1    
    44   22   23 am   BACKBONE|DICT|INTERRES
    45   22   86 1    
    46   23   24 2    
    47   23   25 1    
    48   25   26 1    
    49   25   27 1    
    50   25   87 1    
    51   26   88 1    
    52   26   89 1    
    53   26   90 1    
    54   27   28 am   BACKBONE|DICT|INTERRES
    55   27   91 1    
    56   28   29 2    
    57   28   30 1    
    58   30   31 1    
    59   30   32 1    
    60   30   92 1    
    61   31   93 1    
    62   31   94 1    
    63   31   95 1    
    64   32   33 am   BACKBONE|DICT|INTERRES
    65   32   96 1    
    66   33   34 2    
    67   33   35 1    
    68   35   36 1    
    69   35   37 1    
    70   35   97 1    
    71   36   98 1    
    72   36   99 1    
    73   36  100 1    
    74   37   38 am   BACKBONE|DICT|INTERRES
    75   37  101 1    
    76   38   39 2    
    77   38   40 1    
    78   40   41 1    
    79   40   42 1    
    80   40  102 1    
    81   41  103 1    
    82   41  104 1    
    83   41  105 1    
    84   42   43 am   BACKBONE|DICT|INTERRES
    85   42  106 1    
    86   43   44 2    
    87   43   45 1    
    88   45   46 1    
    89   45   49 1    
    90   45  107 1    
    91   46   47 1    
    92   46  108 1    
    93   46  109 1    
    94   47   48 1    
    95   48  110 1    
    96   48  111 1    
    97   49   50 am   BACKBONE|DICT|INTERRES
    98   49  112 1    
    99   50   51 2    
   100   50   52 1    
   101   52   53 1    
   102   52   54 1    
   103   52  113 1    
   104   53  114 1    
   105   53  115 1    
   106   53  116 1    
   107   54   55 am   BACKBONE|DICT|INTERRES
   108   54  117 1    
   109   55   56 2    
   110   55   57 1    
   111   57   58 1    
   112   57   59 1    
   113   57  118 1    
   114   58  119 1    
   115   58  120 1    
   116   58  121 1    
   117   59   60 am   BACKBONE|DICT|INTERRES
   118   59  122 1    
   119   60   61 2    
   120   60   62 1    
   121   62   63 1    
   122   62   64 1    
   123   62  123 1    
   124   63  124 1    
   125   63  125 1    
   126   63  126 1    
   127   64   65 am   BACKBONE|DICT|INTERRES
   128   64  127 1    
   129   65   66 2    
@<TRIPOS>SUBSTRUCTURE
     1 UNK         1 GROUP             0       ****    0 ROOT    
