@<TRIPOS>MOLECULE
3R135
127   129    1
SMALL
USER_CHARGES


@<TRIPOS>ATOM
      1 CA        -84.5103   27.5399  -72.9775 C.3       0 UNK        -0.1998 
      2 C         -83.2617   28.1275  -72.3254 C.2       0 UNK         0.4909 
      3 O         -83.2086   28.2243  -71.1013 O.2       0 UNK        -0.5240 
      4 N         -82.2354   28.5379  -73.0845 N.am      1 UNK        -0.4739 
      5 CA        -82.1111   28.4481  -74.5473 C.3       1 UNK         0.0864 
      6 C6        -81.0802   29.4711  -75.0969 C.3       11 UNK        -0.0881 
      7 S7        -79.3746   29.2338  -74.4868 S.3       11 UNK        -0.2682 
      8 C8        -79.3269   30.3616  -73.0528 C.3       11 UNK         0.0289 
      9 C9        -78.3312   29.8835  -72.0047 C.ar      11 UNK        -0.0687 
     10 C10       -78.4016   28.5754  -71.5183 C.ar      11 UNK        -0.0823 
     11 C11       -77.4554   28.0990  -70.6088 C.ar      11 UNK        -0.0830 
     12 C12       -76.4635   28.9620  -70.1330 C.ar      11 UNK        -0.1021 
     13 C13       -76.4015   30.2850  -70.5853 C.ar      11 UNK        -0.0753 
     14 C14       -77.3358   30.7384  -71.5236 C.ar      11 UNK        -0.0933 
     15 C15       -75.3257   31.2259  -70.0602 C.3       11 UNK         0.0166 
     16 S16       -73.6985   30.9184  -70.8202 S.3       11 UNK        -0.2615 
     17 C17       -74.0053   31.3300  -72.5741 C.3       11 UNK        -0.0865 
     18 CA        -73.9927   30.0762  -73.4925 C.3       10 UNK         0.0862 
     19 C         -74.5162   30.4004  -74.9235 C.2       10 UNK         0.5551 
     20 N         -73.8544   29.9729  -75.9935 N.am      10 UNK        -0.7319 
     21 O         -75.5457   31.0535  -75.0704 O.2       10 UNK        -0.5018 
     22 N         -72.6626   29.4494  -73.5170 N.am      10 UNK        -0.4509 
     23 C         -72.3455   28.2544  -73.0127 C.2       10 UNK         0.4899 
     24 O         -73.1150   27.5283  -72.3820 O.2       10 UNK        -0.4839 
     25 CA        -70.9079   27.7817  -73.2880 C.3       9 UNK         0.0222 
     26 CB        -70.2813   27.1192  -72.0482 C.3       9 UNK        -0.1966 
     27 N         -70.8715   26.8419  -74.4087 N.am      9 UNK        -0.4218 
     28 C         -71.1430   27.1404  -75.6873 C.2       9 UNK         0.5020 
     29 O         -71.3939   28.2812  -76.0843 O.2       9 UNK        -0.5274 
     30 CA        -71.1218   25.9849  -76.7007 C.3       8 UNK         0.0270 
     31 CB        -70.8316   24.5951  -76.0907 C.3       8 UNK        -0.1976 
     32 N         -72.3974   25.9465  -77.4139 N.am      8 UNK        -0.4313 
     33 C         -72.5470   25.5897  -78.6963 C.2       8 UNK         0.5041 
     34 O         -71.5971   25.3129  -79.4319 O.2       8 UNK        -0.5577 
     35 CA        -73.9730   25.4808  -79.2746 C.3       7 UNK         0.0284 
     36 CB        -74.2660   24.0334  -79.7065 C.3       7 UNK        -0.1958 
     37 N         -75.0255   25.9184  -78.3547 N.am      7 UNK        -0.4454 
     38 C         -75.3915   27.1941  -78.1733 C.2       7 UNK         0.5089 
     39 O         -74.9065   28.1395  -78.7959 O.2       7 UNK        -0.5125 
     40 CA        -76.4666   27.4720  -77.1056 C.3       6 UNK         0.0408 
     41 CB        -77.8670   27.4343  -77.7353 C.3       6 UNK        -0.1791 
     42 N         -76.4304   26.5806  -75.9395 N.am      6 UNK        -0.4762 
     43 C         -75.3686   26.3926  -75.1410 C.2       6 UNK         0.5007 
     44 O         -74.2508   26.8363  -75.3852 O.2       6 UNK        -0.5032 
     45 CA        -75.5773   25.5517  -73.8728 C.3       5 UNK         0.0783 
     46 C46       -76.4286   26.3215  -72.8402 C.3       11 UNK        -0.0857 
     47 S47       -76.3028   25.6150  -71.1617 S.3       11 UNK        -0.2512 
     48 C48       -77.4819   26.6316  -70.2022 C.3       11 UNK         0.0225 
     49 N         -76.1635   24.2655  -74.2389 N.am      5 UNK        -0.4615 
     50 C         -75.4483   23.1975  -74.6125 C.2       4 UNK         0.5053 
     51 O         -74.2197   23.1407  -74.5605 O.2       4 UNK        -0.5105 
     52 CA        -76.2305   21.9872  -75.1543 C.3       4 UNK         0.0263 
     53 CB        -76.5277   20.9904  -74.0225 C.3       4 UNK        -0.1981 
     54 N         -77.4841   22.3474  -75.8232 N.am      4 UNK        -0.4224 
     55 C         -77.5764   23.0974  -76.9312 C.2       3 UNK         0.4895 
     56 O         -76.6086   23.5609  -77.5337 O.2       3 UNK        -0.5091 
     57 CA        -78.9954   23.4253  -77.4239 C.3       3 UNK         0.0250 
     58 CB        -79.5160   22.3076  -78.3415 C.3       3 UNK        -0.1996 
     59 N         -79.9664   23.6735  -76.3504 N.am      3 UNK        -0.4254 
     60 C         -79.8435   24.6061  -75.3948 C.2       2 UNK         0.5004 
     61 O         -78.8451   25.3128  -75.2423 O.2       2 UNK        -0.5226 
     62 CA        -81.0110   24.7392  -74.4067 C.3       2 UNK         0.0269 
     63 CB        -80.6597   24.0488  -73.0785 C.3       2 UNK        -0.1926 
     64 N         -81.3379   26.1410  -74.1413 N.am      2 UNK        -0.4687 
     65 C         -81.8305   27.0087  -75.0390 C.2       1 UNK         0.5165 
     66 O         -82.1056   26.7050  -76.2005 O.2       1 UNK        -0.5079 
     67 H67       -84.9494   28.2395  -73.6877 H         1 UNK         0.0900 
     68 H68       -85.2661   27.3235  -72.2227 H         1 UNK         0.0900 
     69 H69       -84.2834   26.6068  -73.4914 H         1 UNK         0.0900 
     70 H70       -81.4291   28.9264  -72.6191 H         1 UNK         0.2959 
     71 H71       -83.0737   28.7261  -74.9803 H         1 UNK         0.1079 
     72 H72       -81.0542   29.4252  -76.1875 H         1 UNK         0.0837 
     73 H73       -81.4041   30.4862  -74.8614 H         1 UNK         0.0837 
     74 H74       -79.0726   31.3618  -73.4071 H         1 UNK         0.0685 
     75 H75       -80.3094   30.4388  -72.5882 H         1 UNK         0.0685 
     76 H76       -79.1634   27.9067  -71.8938 H         1 UNK         0.1434 
     77 H77       -75.7239   28.5979  -69.4330 H         1 UNK         0.1329 
     78 H78       -77.2834   31.7558  -71.8859 H         1 UNK         0.1335 
     79 H79       -75.6086   32.2671  -70.2229 H         1 UNK         0.0680 
     80 H80       -75.2360   31.1022  -68.9800 H         1 UNK         0.0680 
     81 H81       -73.2445   32.0418  -72.8984 H         1 UNK         0.1032 
     82 H82       -74.9541   31.8622  -72.6511 H         1 UNK         0.1032 
     83 H83       -74.7182   29.3657  -73.0926 H         1 UNK         0.0461 
     84 H84       -74.2148   30.1814  -76.9104 H         1 UNK         0.3453 
     85 H85       -73.0459   29.3658  -75.9018 H         1 UNK         0.3453 
     86 H86       -71.9690   29.9350  -74.0678 H         1 UNK         0.2984 
     87 H87       -70.2945   28.6473  -73.5481 H         1 UNK         0.0554 
     88 H88       -69.2388   26.8530  -72.2231 H         1 UNK         0.0847 
     89 H89       -70.8153   26.2138  -71.7567 H         1 UNK         0.0847 
     90 H90       -70.3032   27.7974  -71.1941 H         1 UNK         0.0847 
     91 H91       -70.7116   25.8730  -74.1757 H         1 UNK         0.3141 
     92 H92       -70.3204   26.2238  -77.4029 H         1 UNK         0.0743 
     93 H93       -71.6045   24.2928  -75.3820 H         1 UNK         0.0784 
     94 H94       -70.7871   23.8312  -76.8674 H         1 UNK         0.0784 
     95 H95       -69.8693   24.5747  -75.5774 H         1 UNK         0.0784 
     96 H96       -73.2066   26.2420  -76.8697 H         1 UNK         0.3213 
     97 H97       -74.0047   26.1091  -80.1674 H         1 UNK         0.0855 
     98 H98       -74.2065   23.3436  -78.8636 H         1 UNK         0.0814 
     99 H99       -73.5504   23.6939  -80.4565 H         1 UNK         0.0814 
    100 H100      -75.2602   23.9421  -80.1442 H         1 UNK         0.0814 
    101 H101      -75.5068   25.1905  -77.8325 H         1 UNK         0.3105 
    102 H102      -76.2982   28.4824  -76.7290 H         1 UNK         0.0547 
    103 H103      -77.9534   28.1701  -78.5357 H         1 UNK         0.0837 
    104 H104      -78.0851   26.4584  -78.1662 H         1 UNK         0.0837 
    105 H105      -78.6427   27.6585  -77.0031 H         1 UNK         0.0837 
    106 H106      -77.3170   26.1509  -75.6757 H         1 UNK         0.3020 
    107 H107      -74.5881   25.3922  -73.4354 H         1 UNK         0.1245 
    108 H108      -77.4763   26.3594  -73.1436 H         1 UNK         0.0781 
    109 H109      -76.0833   27.3556  -72.7806 H         1 UNK         0.0781 
    110 H110      -77.2516   26.5373  -69.1402 H         1 UNK         0.0836 
    111 H111      -78.4847   26.2212  -70.3318 H         1 UNK         0.0836 
    112 H112      -77.1669   24.2563  -74.3681 H         1 UNK         0.3022 
    113 H113      -75.5942   21.4919  -75.8909 H         1 UNK         0.0747 
    114 H114      -77.0036   20.0864  -74.4030 H         1 UNK         0.0793 
    115 H115      -75.6080   20.6839  -73.5220 H         1 UNK         0.0793 
    116 H116      -77.1820   21.4233  -73.2644 H         1 UNK         0.0793 
    117 H117      -78.3387   22.0173  -75.3993 H         1 UNK         0.3047 
    118 H118      -78.9297   24.3387  -78.0158 H         1 UNK         0.0822 
    119 H119      -80.4722   22.5755  -78.7912 H         1 UNK         0.0807 
    120 H120      -79.6487   21.3686  -77.8025 H         1 UNK         0.0807 
    121 H121      -78.8188   22.1181  -79.1592 H         1 UNK         0.0807 
    122 H122      -80.8154   23.1275  -76.3857 H         1 UNK         0.2946 
    123 H123      -81.8968   24.2616  -74.8313 H         1 UNK         0.1144 
    124 H124      -81.4869   24.1044  -72.3706 H         1 UNK         0.0793 
    125 H125      -79.7844   24.5000  -72.6081 H         1 UNK         0.0793 
    126 H126      -80.4379   22.9919  -73.2325 H         1 UNK         0.0793 
    127 H127      -81.1246   26.4897  -73.2191 H         1 UNK         0.2896 
@<TRIPOS>BOND
     1    1    2 1    
     2    1   67 1    
     3    1   68 1    
     4    1   69 1    
     5    2    3 2    
     6    2    4 am   BACKBONE|DICT|INTERRES
     7    4    5 1    
     8    4   70 1    
     9    5    6 1    
    10    5   65 1    
    11    5   71 1    
    12    6    7 1    
    13    6   72 1    
    14    6   73 1    
    15    7    8 1    
    16    8    9 1    
    17    8   74 1    
    18    8   75 1    
    19    9   10 ar   
    20    9   14 ar   
    21   10   11 ar   
    22   10   76 1    
    23   11   12 ar   
    24   11   48 1    
    25   12   13 ar   
    26   12   77 1    
    27   13   14 ar   
    28   13   15 1    
    29   14   78 1    
    30   15   16 1    
    31   15   79 1    
    32   15   80 1    
    33   16   17 1    
    34   17   18 1    
    35   17   81 1    
    36   17   82 1    
    37   18   19 1    
    38   18   22 1    
    39   18   83 1    
    40   19   20 am   BACKBONE|DICT|INTERRES
    41   19   21 2    
    42   20   84 1    
    43   20   85 1    
    44   22   23 am   BACKBONE|DICT|INTERRES
    45   22   86 1    
    46   23   24 2    
    47   23   25 1    
    48   25   26 1    
    49   25   27 1    
    50   25   87 1    
    51   26   88 1    
    52   26   89 1    
    53   26   90 1    
    54   27   28 am   BACKBONE|DICT|INTERRES
    55   27   91 1    
    56   28   29 2    
    57   28   30 1    
    58   30   31 1    
    59   30   32 1    
    60   30   92 1    
    61   31   93 1    
    62   31   94 1    
    63   31   95 1    
    64   32   33 am   BACKBONE|DICT|INTERRES
    65   32   96 1    
    66   33   34 2    
    67   33   35 1    
    68   35   36 1    
    69   35   37 1    
    70   35   97 1    
    71   36   98 1    
    72   36   99 1    
    73   36  100 1    
    74   37   38 am   BACKBONE|DICT|INTERRES
    75   37  101 1    
    76   38   39 2    
    77   38   40 1    
    78   40   41 1    
    79   40   42 1    
    80   40  102 1    
    81   41  103 1    
    82   41  104 1    
    83   41  105 1    
    84   42   43 am   BACKBONE|DICT|INTERRES
    85   42  106 1    
    86   43   44 2    
    87   43   45 1    
    88   45   46 1    
    89   45   49 1    
    90   45  107 1    
    91   46   47 1    
    92   46  108 1    
    93   46  109 1    
    94   47   48 1    
    95   48  110 1    
    96   48  111 1    
    97   49   50 am   BACKBONE|DICT|INTERRES
    98   49  112 1    
    99   50   51 2    
   100   50   52 1    
   101   52   53 1    
   102   52   54 1    
   103   52  113 1    
   104   53  114 1    
   105   53  115 1    
   106   53  116 1    
   107   54   55 am   BACKBONE|DICT|INTERRES
   108   54  117 1    
   109   55   56 2    
   110   55   57 1    
   111   57   58 1    
   112   57   59 1    
   113   57  118 1    
   114   58  119 1    
   115   58  120 1    
   116   58  121 1    
   117   59   60 am   BACKBONE|DICT|INTERRES
   118   59  122 1    
   119   60   61 2    
   120   60   62 1    
   121   62   63 1    
   122   62   64 1    
   123   62  123 1    
   124   63  124 1    
   125   63  125 1    
   126   63  126 1    
   127   64   65 am   BACKBONE|DICT|INTERRES
   128   64  127 1    
   129   65   66 2    
@<TRIPOS>SUBSTRUCTURE
     1 UNK         1 GROUP             0       ****    0 ROOT    
