@<TRIPOS>MOLECULE
3R135
127   129    1
SMALL
USER_CHARGES


@<TRIPOS>ATOM
      1 CA        -82.5944   24.1625  -75.9690 C.3       0 UNK        -0.1998 
      2 C         -82.0961   25.5268  -75.5199 C.2       0 UNK         0.4909 
      3 O         -81.8656   26.4012  -76.3561 O.2       0 UNK        -0.5240 
      4 N         -81.9385   25.7261  -74.2040 N.am      1 UNK        -0.4739 
      5 CA        -81.4877   26.9932  -73.6224 C.3       1 UNK         0.0864 
      6 C6        -81.7899   27.0836  -72.1089 C.3       11 UNK        -0.0881 
      7 S7        -81.9356   28.8239  -71.5670 S.3       11 UNK        -0.2682 
      8 C8        -81.2240   28.7904  -69.8919 C.3       11 UNK         0.0289 
      9 C9        -79.7511   28.4113  -69.8969 C.ar      11 UNK        -0.0687 
     10 C10       -79.3628   27.1273  -69.5037 C.ar      11 UNK        -0.0823 
     11 C11       -78.0168   26.7614  -69.5242 C.ar      11 UNK        -0.0830 
     12 C12       -77.0521   27.7082  -69.8711 C.ar      11 UNK        -0.1021 
     13 C13       -77.4274   28.9724  -70.3297 C.ar      11 UNK        -0.0753 
     14 C14       -78.7812   29.3273  -70.3212 C.ar      11 UNK        -0.0933 
     15 C15       -76.3741   29.9271  -70.8785 C.3       11 UNK         0.0166 
     16 S16       -75.2744   29.1096  -72.0915 S.3       11 UNK        -0.2615 
     17 C17       -74.4270   30.5455  -72.8215 C.3       11 UNK        -0.0865 
     18 CA        -74.8597   30.7574  -74.3031 C.3       10 UNK         0.0862 
     19 C         -74.6831   32.2290  -74.7966 C.2       10 UNK         0.5551 
     20 N         -74.4772   32.4692  -76.0863 N.am      10 UNK        -0.7319 
     21 O         -74.7706   33.1716  -74.0136 O.2       10 UNK        -0.5018 
     22 N         -74.3275   29.7348  -75.2306 N.am      10 UNK        -0.4509 
     23 C         -73.0303   29.5920  -75.5408 C.2       10 UNK         0.4899 
     24 O         -72.1248   30.2035  -74.9717 O.2       10 UNK        -0.4839 
     25 CA        -72.6753   28.6697  -76.7163 C.3       9 UNK         0.0222 
     26 CB        -71.1990   28.2280  -76.7056 C.3       9 UNK        -0.1966 
     27 N         -73.5509   27.4992  -76.8219 N.am      9 UNK        -0.4218 
     28 C         -73.9600   26.9879  -77.9915 C.2       9 UNK         0.5020 
     29 O         -73.7098   27.4984  -79.0867 O.2       9 UNK        -0.5274 
     30 CA        -74.7590   25.6739  -77.9289 C.3       8 UNK         0.0270 
     31 CB        -75.2442   25.1965  -79.3150 C.3       8 UNK        -0.1976 
     32 N         -74.0215   24.6046  -77.2497 N.am      8 UNK        -0.4313 
     33 C         -72.8373   24.0703  -77.5850 C.2       8 UNK         0.5041 
     34 O         -72.1896   24.3750  -78.5883 O.2       8 UNK        -0.5577 
     35 CA        -72.2922   23.0177  -76.5992 C.3       7 UNK         0.0284 
     36 CB        -70.8949   22.4809  -76.9796 C.3       7 UNK        -0.1958 
     37 N         -72.3199   23.5200  -75.2195 N.am      7 UNK        -0.4454 
     38 C         -71.6637   24.5853  -74.7297 C.2       7 UNK         0.5089 
     39 O         -70.7869   25.1937  -75.3415 O.2       7 UNK        -0.5125 
     40 CA        -72.0679   25.0499  -73.3136 C.3       6 UNK         0.0408 
     41 CB        -71.7927   26.5503  -73.0726 C.3       6 UNK        -0.1791 
     42 N         -73.4567   24.7136  -72.9682 N.am      6 UNK        -0.4762 
     43 C         -74.5715   25.1430  -73.5817 C.2       6 UNK         0.5007 
     44 O         -74.5828   25.9509  -74.5157 O.2       6 UNK        -0.5032 
     45 CA        -75.8870   24.5300  -73.0563 C.3       5 UNK         0.0783 
     46 C46       -76.3818   25.3019  -71.8188 C.3       11 UNK        -0.0857 
     47 S47       -77.6285   24.3831  -70.8513 S.3       11 UNK        -0.2512 
     48 C48       -77.6074   25.3184  -69.2817 C.3       11 UNK         0.0225 
     49 N         -76.9203   24.4476  -74.0932 N.am      5 UNK        -0.4615 
     50 C         -76.8210   23.6908  -75.1933 C.2       4 UNK         0.5053 
     51 O         -75.8227   23.0257  -75.4763 O.2       4 UNK        -0.5105 
     52 CA        -78.0205   23.6844  -76.1442 C.3       4 UNK         0.0263 
     53 CB        -79.2381   23.0053  -75.4973 C.3       4 UNK        -0.1981 
     54 N         -78.3513   25.0502  -76.5497 N.am      4 UNK        -0.4224 
     55 C         -78.4835   25.4575  -77.8198 C.2       3 UNK         0.4895 
     56 O         -78.4738   24.6875  -78.7807 O.2       3 UNK        -0.5091 
     57 CA        -78.6306   26.9692  -78.0872 C.3       3 UNK         0.0250 
     58 CB        -79.7555   27.2565  -79.0977 C.3       3 UNK        -0.1996 
     59 N         -78.8804   27.7392  -76.8695 N.am      3 UNK        -0.4254 
     60 C         -77.9459   28.3209  -76.1037 C.2       2 UNK         0.5004 
     61 O         -76.7421   28.3232  -76.3637 O.2       2 UNK        -0.5226 
     62 CA        -78.4377   29.0195  -74.8213 C.3       2 UNK         0.0269 
     63 CB        -78.5759   30.5326  -75.0694 C.3       2 UNK        -0.1926 
     64 N         -79.7219   28.5254  -74.3151 N.am      2 UNK        -0.4687 
     65 C         -80.0055   27.2662  -73.9580 C.2       1 UNK         0.5165 
     66 O         -79.1788   26.3478  -73.9480 O.2       1 UNK        -0.5079 
     67 H67       -82.0860   23.8574  -76.8832 H         1 UNK         0.0900 
     68 H68       -82.4210   23.3989  -75.2111 H         1 UNK         0.0900 
     69 H69       -83.6633   24.2054  -76.1758 H         1 UNK         0.0900 
     70 H70       -82.1078   24.9707  -73.5555 H         1 UNK         0.2959 
     71 H71       -82.0845   27.7637  -74.1176 H         1 UNK         0.1079 
     72 H72       -81.0423   26.5399  -71.5320 H         1 UNK         0.0837 
     73 H73       -82.7448   26.6049  -71.8856 H         1 UNK         0.0837 
     74 H74       -81.8008   28.1023  -69.2718 H         1 UNK         0.0685 
     75 H75       -81.3397   29.7769  -69.4406 H         1 UNK         0.0685 
     76 H76       -80.1114   26.3977  -69.2259 H         1 UNK         0.1434 
     77 H77       -76.0078   27.4293  -69.8805 H         1 UNK         0.1329 
     78 H78       -79.0868   30.3059  -70.6654 H         1 UNK         0.1335 
     79 H79       -76.8556   30.7808  -71.3584 H         1 UNK         0.0680 
     80 H80       -75.7775   30.3196  -70.0540 H         1 UNK         0.0680 
     81 H81       -74.6526   31.4195  -72.2088 H         1 UNK         0.1032 
     82 H82       -73.3496   30.4053  -72.7343 H         1 UNK         0.1032 
     83 H83       -75.9366   30.6199  -74.3245 H         1 UNK         0.0461 
     84 H84       -74.3765   33.4215  -76.4006 H         1 UNK         0.3453 
     85 H85       -74.4249   31.7109  -76.7466 H         1 UNK         0.3453 
     86 H86       -75.0230   29.1911  -75.7344 H         1 UNK         0.2984 
     87 H87       -72.8164   29.2961  -77.5993 H         1 UNK         0.0554 
     88 H88       -70.5333   29.0845  -76.8170 H         1 UNK         0.0847 
     89 H89       -70.9779   27.5384  -77.5206 H         1 UNK         0.0847 
     90 H90       -70.9368   27.7365  -75.7698 H         1 UNK         0.0847 
     91 H91       -73.8343   27.0438  -75.9554 H         1 UNK         0.3141 
     92 H92       -75.6347   25.8793  -77.3136 H         1 UNK         0.0743 
     93 H93       -75.8910   25.9410  -79.7800 H         1 UNK         0.0784 
     94 H94       -75.8150   24.2714  -79.2377 H         1 UNK         0.0784 
     95 H95       -74.4134   25.0177  -79.9982 H         1 UNK         0.0784 
     96 H96       -74.4603   24.2588  -76.4023 H         1 UNK         0.3213 
     97 H97       -72.9866   22.1763  -76.6358 H         1 UNK         0.0855 
     98 H98       -70.1502   23.2756  -77.0287 H         1 UNK         0.0814 
     99 H99       -70.9185   22.0019  -77.9591 H         1 UNK         0.0814 
    100 H100      -70.5464   21.7373  -76.2631 H         1 UNK         0.0814 
    101 H101      -73.0095   23.0916  -74.6178 H         1 UNK         0.3105 
    102 H102      -71.4372   24.4871  -72.6240 H         1 UNK         0.0547 
    103 H103      -72.0605   26.8448  -72.0582 H         1 UNK         0.0837 
    104 H104      -72.3541   27.1829  -73.7597 H         1 UNK         0.0837 
    105 H105      -70.7360   26.7838  -73.2077 H         1 UNK         0.0837 
    106 H106      -73.5554   24.0574  -72.2047 H         1 UNK         0.3020 
    107 H107      -75.6655   23.5038  -72.7537 H         1 UNK         0.1245 
    108 H108      -76.8024   26.2606  -72.1289 H         1 UNK         0.0781 
    109 H109      -75.5499   25.5253  -71.1481 H         1 UNK         0.0781 
    110 H110      -76.6130   25.2701  -68.8351 H         1 UNK         0.0836 
    111 H111      -78.2878   24.8460  -68.5716 H         1 UNK         0.0836 
    112 H112      -77.7583   24.9984  -73.9306 H         1 UNK         0.3022 
    113 H113      -77.7260   23.0903  -77.0121 H         1 UNK         0.0747 
    114 H114      -80.0250   22.8435  -76.2322 H         1 UNK         0.0793 
    115 H115      -78.9732   22.0274  -75.0928 H         1 UNK         0.0793 
    116 H116      -79.6508   23.5977  -74.6800 H         1 UNK         0.0793 
    117 H117      -78.3996   25.7390  -75.8074 H         1 UNK         0.3047 
    118 H118      -77.6911   27.3023  -78.5330 H         1 UNK         0.0822 
    119 H119      -79.8482   28.3245  -79.2954 H         1 UNK         0.0807 
    120 H120      -80.7207   26.8958  -78.7413 H         1 UNK         0.0807 
    121 H121      -79.5594   26.7695  -80.0539 H         1 UNK         0.0807 
    122 H122      -79.8431   27.7680  -76.5582 H         1 UNK         0.2946 
    123 H123      -77.6819   28.8456  -74.0519 H         1 UNK         0.1144 
    124 H124      -78.6546   31.0805  -74.1300 H         1 UNK         0.0793 
    125 H125      -79.4584   30.7629  -75.6674 H         1 UNK         0.0793 
    126 H126      -77.7213   30.9362  -75.6131 H         1 UNK         0.0793 
    127 H127      -80.4648   29.2083  -74.2662 H         1 UNK         0.2896 
@<TRIPOS>BOND
     1    1    2 1    
     2    1   67 1    
     3    1   68 1    
     4    1   69 1    
     5    2    3 2    
     6    2    4 am   BACKBONE|DICT|INTERRES
     7    4    5 1    
     8    4   70 1    
     9    5    6 1    
    10    5   65 1    
    11    5   71 1    
    12    6    7 1    
    13    6   72 1    
    14    6   73 1    
    15    7    8 1    
    16    8    9 1    
    17    8   74 1    
    18    8   75 1    
    19    9   10 ar   
    20    9   14 ar   
    21   10   11 ar   
    22   10   76 1    
    23   11   12 ar   
    24   11   48 1    
    25   12   13 ar   
    26   12   77 1    
    27   13   14 ar   
    28   13   15 1    
    29   14   78 1    
    30   15   16 1    
    31   15   79 1    
    32   15   80 1    
    33   16   17 1    
    34   17   18 1    
    35   17   81 1    
    36   17   82 1    
    37   18   19 1    
    38   18   22 1    
    39   18   83 1    
    40   19   20 am   BACKBONE|DICT|INTERRES
    41   19   21 2    
    42   20   84 1    
    43   20   85 1    
    44   22   23 am   BACKBONE|DICT|INTERRES
    45   22   86 1    
    46   23   24 2    
    47   23   25 1    
    48   25   26 1    
    49   25   27 1    
    50   25   87 1    
    51   26   88 1    
    52   26   89 1    
    53   26   90 1    
    54   27   28 am   BACKBONE|DICT|INTERRES
    55   27   91 1    
    56   28   29 2    
    57   28   30 1    
    58   30   31 1    
    59   30   32 1    
    60   30   92 1    
    61   31   93 1    
    62   31   94 1    
    63   31   95 1    
    64   32   33 am   BACKBONE|DICT|INTERRES
    65   32   96 1    
    66   33   34 2    
    67   33   35 1    
    68   35   36 1    
    69   35   37 1    
    70   35   97 1    
    71   36   98 1    
    72   36   99 1    
    73   36  100 1    
    74   37   38 am   BACKBONE|DICT|INTERRES
    75   37  101 1    
    76   38   39 2    
    77   38   40 1    
    78   40   41 1    
    79   40   42 1    
    80   40  102 1    
    81   41  103 1    
    82   41  104 1    
    83   41  105 1    
    84   42   43 am   BACKBONE|DICT|INTERRES
    85   42  106 1    
    86   43   44 2    
    87   43   45 1    
    88   45   46 1    
    89   45   49 1    
    90   45  107 1    
    91   46   47 1    
    92   46  108 1    
    93   46  109 1    
    94   47   48 1    
    95   48  110 1    
    96   48  111 1    
    97   49   50 am   BACKBONE|DICT|INTERRES
    98   49  112 1    
    99   50   51 2    
   100   50   52 1    
   101   52   53 1    
   102   52   54 1    
   103   52  113 1    
   104   53  114 1    
   105   53  115 1    
   106   53  116 1    
   107   54   55 am   BACKBONE|DICT|INTERRES
   108   54  117 1    
   109   55   56 2    
   110   55   57 1    
   111   57   58 1    
   112   57   59 1    
   113   57  118 1    
   114   58  119 1    
   115   58  120 1    
   116   58  121 1    
   117   59   60 am   BACKBONE|DICT|INTERRES
   118   59  122 1    
   119   60   61 2    
   120   60   62 1    
   121   62   63 1    
   122   62   64 1    
   123   62  123 1    
   124   63  124 1    
   125   63  125 1    
   126   63  126 1    
   127   64   65 am   BACKBONE|DICT|INTERRES
   128   64  127 1    
   129   65   66 2    
@<TRIPOS>SUBSTRUCTURE
     1 UNK         1 GROUP             0       ****    0 ROOT    
