@<TRIPOS>MOLECULE
3R135
127   129    1
SMALL
USER_CHARGES


@<TRIPOS>ATOM
      1 CA        -86.0944   29.3263  -73.8137 C.3       0 UNK        -0.1998 
      2 C         -84.6328   29.1718  -74.2072 C.2       0 UNK         0.4909 
      3 O         -84.1034   30.0107  -74.9373 O.2       0 UNK        -0.5240 
      4 N         -83.9743   28.1113  -73.7225 N.am      1 UNK        -0.4739 
      5 CA        -82.5895   27.7668  -74.0575 C.3       1 UNK         0.0864 
      6 C6        -82.0035   26.7759  -73.0219 C.3       11 UNK        -0.0881 
      7 S7        -80.1845   26.6800  -73.0846 S.3       11 UNK        -0.2682 
      8 C8        -79.7130   27.9166  -71.8381 C.3       11 UNK         0.0289 
      9 C9        -78.2008   27.9783  -71.7034 C.ar      11 UNK        -0.0687 
     10 C10       -77.5467   27.1749  -70.7664 C.ar      11 UNK        -0.0823 
     11 C11       -76.1514   27.1819  -70.6748 C.ar      11 UNK        -0.0830 
     12 C12       -75.4110   28.0147  -71.5189 C.ar      11 UNK        -0.1021 
     13 C13       -76.0560   28.8322  -72.4525 C.ar      11 UNK        -0.0753 
     14 C14       -77.4516   28.8132  -72.5365 C.ar      11 UNK        -0.0933 
     15 C15       -75.2518   29.6891  -73.4170 C.3       11 UNK         0.0166 
     16 S16       -74.7750   31.2892  -72.6912 S.3       11 UNK        -0.2615 
     17 C17       -73.1027   30.9348  -72.0449 C.3       11 UNK        -0.0865 
     18 CA        -71.9843   31.3112  -73.0550 C.3       10 UNK         0.0862 
     19 C         -70.5725   31.2105  -72.4039 C.2       10 UNK         0.5551 
     20 N         -69.6437   30.4142  -72.9221 N.am      10 UNK        -0.7319 
     21 O         -70.3120   31.8793  -71.4069 O.2       10 UNK        -0.5018 
     22 N         -72.1216   30.5498  -74.3044 N.am      10 UNK        -0.4509 
     23 C         -71.6896   30.9345  -75.5097 C.2       10 UNK         0.4899 
     24 O         -71.1755   32.0307  -75.7375 O.2       10 UNK        -0.4839 
     25 CA        -71.8658   29.9056  -76.6472 C.3       9 UNK         0.0222 
     26 CB        -70.8843   30.1382  -77.8151 C.3       9 UNK        -0.1966 
     27 N         -71.8068   28.5066  -76.1931 N.am      9 UNK        -0.4218 
     28 C         -70.7846   27.9060  -75.5567 C.2       9 UNK         0.5020 
     29 O         -69.7484   28.4895  -75.2345 O.2       9 UNK        -0.5274 
     30 CA        -70.9427   26.4235  -75.1649 C.3       8 UNK         0.0270 
     31 CB        -71.0556   26.2892  -73.6364 C.3       8 UNK        -0.1976 
     32 N         -72.0925   25.7678  -75.7944 N.am      8 UNK        -0.4313 
     33 C         -72.1539   25.4239  -77.0910 C.2       8 UNK         0.5041 
     34 O         -71.2036   25.5393  -77.8660 O.2       8 UNK        -0.5577 
     35 CA        -73.4935   24.8890  -77.6376 C.3       7 UNK         0.0284 
     36 CB        -73.4126   23.3703  -77.8596 C.3       7 UNK        -0.1958 
     37 N         -74.6556   25.1937  -76.7966 N.am      7 UNK        -0.4454 
     38 C         -75.0985   26.4281  -76.5080 C.2       7 UNK         0.5089 
     39 O         -74.5936   27.4557  -76.9629 O.2       7 UNK        -0.5125 
     40 CA        -76.2477   26.5470  -75.4873 C.3       6 UNK         0.0408 
     41 CB        -77.5879   26.6989  -76.2162 C.3       6 UNK        -0.1791 
     42 N         -76.3274   25.4396  -74.5249 N.am      6 UNK        -0.4762 
     43 C         -75.3211   25.0460  -73.7247 C.2       6 UNK         0.5007 
     44 O         -74.2232   25.6046  -73.7089 O.2       6 UNK        -0.5032 
     45 CA        -75.5193   23.7622  -72.8828 C.3       5 UNK         0.0783 
     46 C46       -75.8795   24.0529  -71.4038 C.3       11 UNK        -0.0857 
     47 S47       -74.5550   24.8985  -70.4701 S.3       11 UNK        -0.2512 
     48 C48       -75.4471   26.2761  -69.6730 C.3       11 UNK         0.0225 
     49 N         -76.4880   22.8258  -73.4632 N.am      5 UNK        -0.4615 
     50 C         -76.4455   22.2792  -74.6857 C.2       4 UNK         0.5053 
     51 O         -75.5579   22.5035  -75.5091 O.2       4 UNK        -0.5105 
     52 CA        -77.6136   21.3506  -75.0704 C.3       4 UNK         0.0263 
     53 CB        -78.3668   20.7636  -73.8543 C.3       4 UNK        -0.1981 
     54 N         -78.5666   21.9886  -75.9878 N.am      4 UNK        -0.4224 
     55 C         -79.1919   23.1643  -75.8239 C.2       3 UNK         0.4895 
     56 O         -78.9940   23.9362  -74.8820 O.2       3 UNK        -0.5091 
     57 CA        -80.2387   23.5225  -76.8845 C.3       3 UNK         0.0250 
     58 CB        -81.5459   22.7419  -76.6525 C.3       3 UNK        -0.1996 
     59 N         -80.5083   24.9563  -76.8264 N.am      3 UNK        -0.4254 
     60 C         -80.9341   25.7075  -77.8487 C.2       2 UNK         0.5004 
     61 O         -81.1780   25.2511  -78.9674 O.2       2 UNK        -0.5226 
     62 CA        -81.0904   27.2219  -77.5914 C.3       2 UNK         0.0269 
     63 CB        -82.0924   27.8890  -78.5591 C.3       2 UNK        -0.1926 
     64 N         -81.4059   27.5711  -76.1978 N.am      2 UNK        -0.4687 
     65 C         -82.4990   27.2231  -75.5010 C.2       1 UNK         0.5165 
     66 O         -83.3990   26.5005  -75.9377 O.2       1 UNK        -0.5079 
     67 H67       -86.4284   28.5203  -73.1606 H         1 UNK         0.0900 
     68 H68       -86.7240   29.3249  -74.7029 H         1 UNK         0.0900 
     69 H69       -86.2446   30.2704  -73.2908 H         1 UNK         0.0900 
     70 H70       -84.4703   27.4371  -73.1570 H         1 UNK         0.2959 
     71 H71       -82.0121   28.6931  -74.0060 H         1 UNK         0.1079 
     72 H72       -82.4124   25.7737  -73.1658 H         1 UNK         0.0837 
     73 H73       -82.2937   27.0700  -72.0118 H         1 UNK         0.0837 
     74 H74       -80.1671   27.6630  -70.8789 H         1 UNK         0.0685 
     75 H75       -80.1068   28.8935  -72.1226 H         1 UNK         0.0685 
     76 H76       -78.1262   26.5233  -70.1265 H         1 UNK         0.1434 
     77 H77       -74.3318   27.9996  -71.4655 H         1 UNK         0.1329 
     78 H78       -77.9550   29.4277  -73.2701 H         1 UNK         0.1335 
     79 H79       -74.3750   29.1356  -73.7527 H         1 UNK         0.0680 
     80 H80       -75.8380   29.8859  -74.3161 H         1 UNK         0.0680 
     81 H81       -72.9891   31.5092  -71.1234 H         1 UNK         0.1032 
     82 H82       -73.0242   29.8875  -71.7520 H         1 UNK         0.1032 
     83 H83       -72.1142   32.3673  -73.2994 H         1 UNK         0.0461 
     84 H84       -68.7375   30.3717  -72.4841 H         1 UNK         0.3453 
     85 H85       -69.8231   29.8624  -73.7538 H         1 UNK         0.3453 
     86 H86       -72.5053   29.6226  -74.2170 H         1 UNK         0.2984 
     87 H87       -72.8761   30.0530  -77.0316 H         1 UNK         0.0554 
     88 H88       -71.0379   29.4115  -78.6128 H         1 UNK         0.0847 
     89 H89       -69.8457   30.0655  -77.4906 H         1 UNK         0.0847 
     90 H90       -71.0199   31.1287  -78.2511 H         1 UNK         0.0847 
     91 H91       -72.6325   27.9537  -76.4019 H         1 UNK         0.3141 
     92 H92       -70.0368   25.9046  -75.4853 H         1 UNK         0.0743 
     93 H93       -70.1640   26.6788  -73.1431 H         1 UNK         0.0784 
     94 H94       -71.9098   26.8417  -73.2431 H         1 UNK         0.0784 
     95 H95       -71.1633   25.2474  -73.3340 H         1 UNK         0.0784 
     96 H96       -72.9128   25.6387  -75.2070 H         1 UNK         0.3213 
     97 H97       -73.6579   25.3673  -78.6054 H         1 UNK         0.0855 
     98 H98       -72.5992   23.1176  -78.5412 H         1 UNK         0.0814 
     99 H99       -74.3328   22.9810  -78.2954 H         1 UNK         0.0814 
    100 H100      -73.2319   22.8368  -76.9256 H         1 UNK         0.0814 
    101 H101      -75.1040   24.4025  -76.3454 H         1 UNK         0.3105 
    102 H102      -76.0729   27.4552  -74.9128 H         1 UNK         0.0547 
    103 H103      -77.8082   25.8245  -76.8286 H         1 UNK         0.0837 
    104 H104      -78.4065   26.8390  -75.5117 H         1 UNK         0.0837 
    105 H105      -77.5754   27.5665  -76.8772 H         1 UNK         0.0837 
    106 H106      -77.1985   24.9175  -74.4990 H         1 UNK         0.3020 
    107 H107      -74.5565   23.2465  -72.8950 H         1 UNK         0.1245 
    108 H108      -76.0706   23.1133  -70.8828 H         1 UNK         0.0781 
    109 H109      -76.8141   24.6103  -71.3472 H         1 UNK         0.0781 
    110 H110      -74.7365   26.8673  -69.0937 H         1 UNK         0.0836 
    111 H111      -76.1583   25.8672  -68.9535 H         1 UNK         0.0836 
    112 H112      -77.2925   22.6141  -72.8917 H         1 UNK         0.3022 
    113 H113      -77.1675   20.5161  -75.6138 H         1 UNK         0.0747 
    114 H114      -79.0809   20.0034  -74.1714 H         1 UNK         0.0793 
    115 H115      -77.6797   20.2815  -73.1573 H         1 UNK         0.0793 
    116 H116      -78.9248   21.5227  -73.3046 H         1 UNK         0.0793 
    117 H117      -78.7795   21.4549  -76.8193 H         1 UNK         0.3047 
    118 H118      -79.8283   23.2714  -77.8651 H         1 UNK         0.0822 
    119 H119      -81.3768   21.6650  -76.6854 H         1 UNK         0.0807 
    120 H120      -82.2881   22.9748  -77.4163 H         1 UNK         0.0807 
    121 H121      -81.9838   22.9757  -75.6810 H         1 UNK         0.0807 
    122 H122      -80.2932   25.3869  -75.9351 H         1 UNK         0.2946 
    123 H123      -80.1096   27.6531  -77.7977 H         1 UNK         0.1144 
    124 H124      -81.7780   27.7671  -79.5964 H         1 UNK         0.0793 
    125 H125      -82.1727   28.9598  -78.3718 H         1 UNK         0.0793 
    126 H126      -83.0899   27.4574  -78.4702 H         1 UNK         0.0793 
    127 H127      -80.7159   28.1440  -75.7312 H         1 UNK         0.2896 
@<TRIPOS>BOND
     1    1    2 1    
     2    1   67 1    
     3    1   68 1    
     4    1   69 1    
     5    2    3 2    
     6    2    4 am   BACKBONE|DICT|INTERRES
     7    4    5 1    
     8    4   70 1    
     9    5    6 1    
    10    5   65 1    
    11    5   71 1    
    12    6    7 1    
    13    6   72 1    
    14    6   73 1    
    15    7    8 1    
    16    8    9 1    
    17    8   74 1    
    18    8   75 1    
    19    9   10 ar   
    20    9   14 ar   
    21   10   11 ar   
    22   10   76 1    
    23   11   12 ar   
    24   11   48 1    
    25   12   13 ar   
    26   12   77 1    
    27   13   14 ar   
    28   13   15 1    
    29   14   78 1    
    30   15   16 1    
    31   15   79 1    
    32   15   80 1    
    33   16   17 1    
    34   17   18 1    
    35   17   81 1    
    36   17   82 1    
    37   18   19 1    
    38   18   22 1    
    39   18   83 1    
    40   19   20 am   BACKBONE|DICT|INTERRES
    41   19   21 2    
    42   20   84 1    
    43   20   85 1    
    44   22   23 am   BACKBONE|DICT|INTERRES
    45   22   86 1    
    46   23   24 2    
    47   23   25 1    
    48   25   26 1    
    49   25   27 1    
    50   25   87 1    
    51   26   88 1    
    52   26   89 1    
    53   26   90 1    
    54   27   28 am   BACKBONE|DICT|INTERRES
    55   27   91 1    
    56   28   29 2    
    57   28   30 1    
    58   30   31 1    
    59   30   32 1    
    60   30   92 1    
    61   31   93 1    
    62   31   94 1    
    63   31   95 1    
    64   32   33 am   BACKBONE|DICT|INTERRES
    65   32   96 1    
    66   33   34 2    
    67   33   35 1    
    68   35   36 1    
    69   35   37 1    
    70   35   97 1    
    71   36   98 1    
    72   36   99 1    
    73   36  100 1    
    74   37   38 am   BACKBONE|DICT|INTERRES
    75   37  101 1    
    76   38   39 2    
    77   38   40 1    
    78   40   41 1    
    79   40   42 1    
    80   40  102 1    
    81   41  103 1    
    82   41  104 1    
    83   41  105 1    
    84   42   43 am   BACKBONE|DICT|INTERRES
    85   42  106 1    
    86   43   44 2    
    87   43   45 1    
    88   45   46 1    
    89   45   49 1    
    90   45  107 1    
    91   46   47 1    
    92   46  108 1    
    93   46  109 1    
    94   47   48 1    
    95   48  110 1    
    96   48  111 1    
    97   49   50 am   BACKBONE|DICT|INTERRES
    98   49  112 1    
    99   50   51 2    
   100   50   52 1    
   101   52   53 1    
   102   52   54 1    
   103   52  113 1    
   104   53  114 1    
   105   53  115 1    
   106   53  116 1    
   107   54   55 am   BACKBONE|DICT|INTERRES
   108   54  117 1    
   109   55   56 2    
   110   55   57 1    
   111   57   58 1    
   112   57   59 1    
   113   57  118 1    
   114   58  119 1    
   115   58  120 1    
   116   58  121 1    
   117   59   60 am   BACKBONE|DICT|INTERRES
   118   59  122 1    
   119   60   61 2    
   120   60   62 1    
   121   62   63 1    
   122   62   64 1    
   123   62  123 1    
   124   63  124 1    
   125   63  125 1    
   126   63  126 1    
   127   64   65 am   BACKBONE|DICT|INTERRES
   128   64  127 1    
   129   65   66 2    
@<TRIPOS>SUBSTRUCTURE
     1 UNK         1 GROUP             0       ****    0 ROOT    
