@<TRIPOS>MOLECULE
3R135
127   129    1
SMALL
USER_CHARGES


@<TRIPOS>ATOM
      1 CA        -83.2835   25.6521  -73.6021 C.3       0 UNK        -0.1998 
      2 C         -82.3631   26.1124  -74.7216 C.2       0 UNK         0.4909 
      3 O         -82.6244   25.8094  -75.8857 O.2       0 UNK        -0.5240 
      4 N         -81.2882   26.8335  -74.3727 N.am      1 UNK        -0.4739 
      5 CA        -80.2730   27.4018  -75.2701 C.3       1 UNK         0.0864 
      6 C6        -79.1993   28.1904  -74.4817 C.3       11 UNK        -0.0881 
      7 S7        -79.9006   29.6004  -73.5552 S.3       11 UNK        -0.2682 
      8 C8        -79.4256   29.2186  -71.8329 C.3       11 UNK         0.0289 
      9 C9        -77.9208   29.0417  -71.6625 C.ar      11 UNK        -0.0687 
     10 C10       -77.4106   27.8653  -71.1045 C.ar      11 UNK        -0.0823 
     11 C11       -76.0294   27.6657  -71.0024 C.ar      11 UNK        -0.0830 
     12 C12       -75.1575   28.6607  -71.4547 C.ar      11 UNK        -0.1021 
     13 C13       -75.6555   29.8522  -71.9895 C.ar      11 UNK        -0.0753 
     14 C14       -77.0367   30.0407  -72.0815 C.ar      11 UNK        -0.0933 
     15 C15       -74.7084   30.9165  -72.5191 C.3       11 UNK         0.0166 
     16 S16       -74.1769   32.0821  -71.2291 S.3       11 UNK        -0.2615 
     17 C17       -72.6365   31.3005  -70.6321 C.3       11 UNK        -0.0865 
     18 CA        -71.3592   31.9914  -71.1975 C.3       10 UNK         0.0862 
     19 C         -70.0580   31.5738  -70.4422 C.2       10 UNK         0.5551 
     20 N         -68.8959   31.5746  -71.0841 N.am      10 UNK        -0.7319 
     21 O         -70.0912   31.2783  -69.2498 O.2       10 UNK        -0.5018 
     22 N         -71.2710   31.9279  -72.6717 N.am      10 UNK        -0.4509 
     23 C         -71.0809   30.8252  -73.4098 C.2       10 UNK         0.4899 
     24 O         -70.9359   29.6941  -72.9408 O.2       10 UNK        -0.4839 
     25 CA        -71.0066   31.0433  -74.9329 C.3       9 UNK         0.0222 
     26 CB        -69.6160   31.5656  -75.3329 C.3       9 UNK        -0.1966 
     27 N         -71.2830   29.8148  -75.6834 N.am      9 UNK        -0.4218 
     28 C         -72.4900   29.2474  -75.8066 C.2       9 UNK         0.5020 
     29 O         -73.5282   29.7457  -75.3665 O.2       9 UNK        -0.5274 
     30 CA        -72.5248   27.8854  -76.5286 C.3       8 UNK         0.0270 
     31 CB        -71.8664   26.7967  -75.6627 C.3       8 UNK        -0.1976 
     32 N         -73.8868   27.4564  -76.8590 N.am      8 UNK        -0.4313 
     33 C         -74.6842   28.0414  -77.7657 C.2       8 UNK         0.5041 
     34 O         -74.3160   28.9562  -78.5066 O.2       8 UNK        -0.5577 
     35 CA        -76.1346   27.5160  -77.8548 C.3       7 UNK         0.0284 
     36 CB        -76.8446   27.9058  -79.1689 C.3       7 UNK        -0.1958 
     37 N         -76.2456   26.0735  -77.6097 N.am      7 UNK        -0.4454 
     38 C         -75.6479   25.0820  -78.2905 C.2       7 UNK         0.5089 
     39 O         -74.9768   25.2543  -79.3087 O.2       7 UNK        -0.5125 
     40 CA        -75.8254   23.6546  -77.7273 C.3       6 UNK         0.0408 
     41 CB        -74.6021   22.7600  -78.0190 C.3       6 UNK        -0.1791 
     42 N         -76.1624   23.6084  -76.2948 N.am      6 UNK        -0.4762 
     43 C         -75.4399   24.1103  -75.2787 C.2       6 UNK         0.5007 
     44 O         -74.3880   24.7294  -75.4439 O.2       6 UNK        -0.5032 
     45 CA        -76.0009   23.9343  -73.8550 C.3       5 UNK         0.0783 
     46 C46       -75.5792   25.1047  -72.9233 C.3       11 UNK        -0.0857 
     47 S47       -76.1274   24.8767  -71.1980 S.3       11 UNK        -0.2512 
     48 C48       -75.4713   26.3797  -70.4031 C.3       11 UNK         0.0225 
     49 N         -77.4580   23.7611  -73.8930 N.am      5 UNK        -0.4615 
     50 C         -78.1268   22.7914  -73.2586 C.2       4 UNK         0.5053 
     51 O         -77.5942   21.8167  -72.7274 O.2       4 UNK        -0.5105 
     52 CA        -79.6472   22.9593  -73.1697 C.3       4 UNK         0.0263 
     53 CB        -80.0034   24.2079  -72.3423 C.3       4 UNK        -0.1981 
     54 N         -80.2596   23.0495  -74.4956 N.am      4 UNK        -0.4224 
     55 C         -80.8576   22.0256  -75.1224 C.2       3 UNK         0.4895 
     56 O         -80.9106   20.8829  -74.6660 O.2       3 UNK        -0.5091 
     57 CA        -81.5435   22.3105  -76.4712 C.3       3 UNK         0.0250 
     58 CB        -83.0721   22.3286  -76.3028 C.3       3 UNK        -0.1996 
     59 N         -81.1177   23.5728  -77.0783 N.am      3 UNK        -0.4254 
     60 C         -80.0219   23.7079  -77.8372 C.2       2 UNK         0.5004 
     61 O         -79.2743   22.7761  -78.1313 O.2       2 UNK        -0.5226 
     62 CA        -79.6832   25.1255  -78.3302 C.3       2 UNK         0.0269 
     63 CB        -80.3340   25.3906  -79.6965 C.3       2 UNK        -0.1926 
     64 N         -80.0744   26.1825  -77.3922 N.am      2 UNK        -0.4687 
     65 C         -79.6115   26.3152  -76.1417 C.2       1 UNK         0.5165 
     66 O         -78.7375   25.5909  -75.6563 O.2       1 UNK        -0.5079 
     67 H67       -84.3061   25.9689  -73.8048 H         1 UNK         0.0900 
     68 H68       -83.2719   24.5650  -73.5296 H         1 UNK         0.0900 
     69 H69       -82.9884   26.0616  -72.6362 H         1 UNK         0.0900 
     70 H70       -81.1538   27.0580  -73.3979 H         1 UNK         0.2959 
     71 H71       -80.7830   28.1029  -75.9343 H         1 UNK         0.1079 
     72 H72       -78.4440   28.5928  -75.1594 H         1 UNK         0.0837 
     73 H73       -78.6652   27.5255  -73.8005 H         1 UNK         0.0837 
     74 H74       -79.9614   28.3240  -71.5121 H         1 UNK         0.0685 
     75 H75       -79.7620   30.0294  -71.1856 H         1 UNK         0.0685 
     76 H76       -78.0861   27.0906  -70.7679 H         1 UNK         0.1434 
     77 H77       -74.0892   28.5062  -71.3972 H         1 UNK         0.1329 
     78 H78       -77.4262   30.9538  -72.5107 H         1 UNK         0.1335 
     79 H79       -73.8374   30.4387  -72.9608 H         1 UNK         0.0680 
     80 H80       -75.1866   31.4752  -73.3251 H         1 UNK         0.0680 
     81 H81       -72.6583   31.3685  -69.5431 H         1 UNK         0.1032 
     82 H82       -72.6304   30.2345  -70.8592 H         1 UNK         0.1032 
     83 H83       -71.4545   33.0540  -70.9707 H         1 UNK         0.0461 
     84 H84       -68.0573   31.3152  -70.5888 H         1 UNK         0.3453 
     85 H85       -68.8519   31.8245  -72.0585 H         1 UNK         0.3453 
     86 H86       -71.3595   32.8158  -73.1448 H         1 UNK         0.2984 
     87 H87       -71.7539   31.7896  -75.2116 H         1 UNK         0.0554 
     88 H88       -69.3902   32.5097  -74.8353 H         1 UNK         0.0847 
     89 H89       -69.5538   31.7484  -76.4059 H         1 UNK         0.0847 
     90 H90       -68.8271   30.8608  -75.0662 H         1 UNK         0.0847 
     91 H91       -70.4798   29.3186  -76.0412 H         1 UNK         0.3141 
     92 H92       -71.9654   27.9809  -77.4615 H         1 UNK         0.0743 
     93 H93       -70.8278   27.0389  -75.4350 H         1 UNK         0.0784 
     94 H94       -71.8667   25.8320  -76.1709 H         1 UNK         0.0784 
     95 H95       -72.3871   26.6724  -74.7119 H         1 UNK         0.0784 
     96 H96       -74.2527   26.6826  -76.3159 H         1 UNK         0.3213 
     97 H97       -76.6718   28.0024  -77.0392 H         1 UNK         0.0855 
     98 H98       -76.3411   27.4873  -80.0407 H         1 UNK         0.0814 
     99 H99       -76.8657   28.9888  -79.2957 H         1 UNK         0.0814 
    100 H100      -77.8783   27.5621  -79.1794 H         1 UNK         0.0814 
    101 H101      -76.7846   25.8067  -76.7944 H         1 UNK         0.3105 
    102 H102      -76.6757   23.2264  -78.2574 H         1 UNK         0.0547 
    103 H103      -74.7444   21.7527  -77.6283 H         1 UNK         0.0837 
    104 H104      -73.6903   23.1656  -77.5792 H         1 UNK         0.0837 
    105 H105      -74.4303   22.6664  -79.0919 H         1 UNK         0.0837 
    106 H106      -77.0314   23.1453  -76.0641 H         1 UNK         0.3020 
    107 H107      -75.5295   23.0241  -73.4776 H         1 UNK         0.1245 
    108 H108      -75.9833   26.0471  -73.2982 H         1 UNK         0.0781 
    109 H109      -74.4934   25.2184  -72.9083 H         1 UNK         0.0781 
    110 H110      -74.3821   26.3602  -70.4657 H         1 UNK         0.0836 
    111 H111      -75.7178   26.3516  -69.3410 H         1 UNK         0.0836 
    112 H112      -77.9740   24.4998  -74.3650 H         1 UNK         0.3022 
    113 H113      -80.0431   22.0938  -72.6336 H         1 UNK         0.0747 
    114 H114      -81.0783   24.2823  -72.1833 H         1 UNK         0.0793 
    115 H115      -79.5363   24.1657  -71.3571 H         1 UNK         0.0793 
    116 H116      -79.6646   25.1282  -72.8181 H         1 UNK         0.0793 
    117 H117      -80.1961   23.9377  -74.9724 H         1 UNK         0.3047 
    118 H118      -81.2908   21.4874  -77.1436 H         1 UNK         0.0822 
    119 H119      -83.5740   22.4715  -77.2599 H         1 UNK         0.0807 
    120 H120      -83.3973   23.1247  -75.6328 H         1 UNK         0.0807 
    121 H121      -83.4315   21.3860  -75.8876 H         1 UNK         0.0807 
    122 H122      -81.6744   24.3968  -76.8634 H         1 UNK         0.2946 
    123 H123      -78.6034   25.1689  -78.4603 H         1 UNK         0.1144 
    124 H124      -80.0287   26.3553  -80.1021 H         1 UNK         0.0793 
    125 H125      -81.4230   25.3810  -79.6341 H         1 UNK         0.0793 
    126 H126      -80.0421   24.6297  -80.4220 H         1 UNK         0.0793 
    127 H127      -80.8317   26.7826  -77.6883 H         1 UNK         0.2896 
@<TRIPOS>BOND
     1    1    2 1    
     2    1   67 1    
     3    1   68 1    
     4    1   69 1    
     5    2    3 2    
     6    2    4 am   BACKBONE|DICT|INTERRES
     7    4    5 1    
     8    4   70 1    
     9    5    6 1    
    10    5   65 1    
    11    5   71 1    
    12    6    7 1    
    13    6   72 1    
    14    6   73 1    
    15    7    8 1    
    16    8    9 1    
    17    8   74 1    
    18    8   75 1    
    19    9   10 ar   
    20    9   14 ar   
    21   10   11 ar   
    22   10   76 1    
    23   11   12 ar   
    24   11   48 1    
    25   12   13 ar   
    26   12   77 1    
    27   13   14 ar   
    28   13   15 1    
    29   14   78 1    
    30   15   16 1    
    31   15   79 1    
    32   15   80 1    
    33   16   17 1    
    34   17   18 1    
    35   17   81 1    
    36   17   82 1    
    37   18   19 1    
    38   18   22 1    
    39   18   83 1    
    40   19   20 am   BACKBONE|DICT|INTERRES
    41   19   21 2    
    42   20   84 1    
    43   20   85 1    
    44   22   23 am   BACKBONE|DICT|INTERRES
    45   22   86 1    
    46   23   24 2    
    47   23   25 1    
    48   25   26 1    
    49   25   27 1    
    50   25   87 1    
    51   26   88 1    
    52   26   89 1    
    53   26   90 1    
    54   27   28 am   BACKBONE|DICT|INTERRES
    55   27   91 1    
    56   28   29 2    
    57   28   30 1    
    58   30   31 1    
    59   30   32 1    
    60   30   92 1    
    61   31   93 1    
    62   31   94 1    
    63   31   95 1    
    64   32   33 am   BACKBONE|DICT|INTERRES
    65   32   96 1    
    66   33   34 2    
    67   33   35 1    
    68   35   36 1    
    69   35   37 1    
    70   35   97 1    
    71   36   98 1    
    72   36   99 1    
    73   36  100 1    
    74   37   38 am   BACKBONE|DICT|INTERRES
    75   37  101 1    
    76   38   39 2    
    77   38   40 1    
    78   40   41 1    
    79   40   42 1    
    80   40  102 1    
    81   41  103 1    
    82   41  104 1    
    83   41  105 1    
    84   42   43 am   BACKBONE|DICT|INTERRES
    85   42  106 1    
    86   43   44 2    
    87   43   45 1    
    88   45   46 1    
    89   45   49 1    
    90   45  107 1    
    91   46   47 1    
    92   46  108 1    
    93   46  109 1    
    94   47   48 1    
    95   48  110 1    
    96   48  111 1    
    97   49   50 am   BACKBONE|DICT|INTERRES
    98   49  112 1    
    99   50   51 2    
   100   50   52 1    
   101   52   53 1    
   102   52   54 1    
   103   52  113 1    
   104   53  114 1    
   105   53  115 1    
   106   53  116 1    
   107   54   55 am   BACKBONE|DICT|INTERRES
   108   54  117 1    
   109   55   56 2    
   110   55   57 1    
   111   57   58 1    
   112   57   59 1    
   113   57  118 1    
   114   58  119 1    
   115   58  120 1    
   116   58  121 1    
   117   59   60 am   BACKBONE|DICT|INTERRES
   118   59  122 1    
   119   60   61 2    
   120   60   62 1    
   121   62   63 1    
   122   62   64 1    
   123   62  123 1    
   124   63  124 1    
   125   63  125 1    
   126   63  126 1    
   127   64   65 am   BACKBONE|DICT|INTERRES
   128   64  127 1    
   129   65   66 2    
@<TRIPOS>SUBSTRUCTURE
     1 UNK         1 GROUP             0       ****    0 ROOT    
