@<TRIPOS>MOLECULE
3R135
127   129    1
SMALL
USER_CHARGES


@<TRIPOS>ATOM
      1 CA        -80.5164   24.1137  -72.0766 C.3       0 UNK        -0.1998 
      2 C         -81.7317   24.8637  -72.6010 C.2       0 UNK         0.4909 
      3 O         -82.8434   24.3374  -72.5523 O.2       0 UNK        -0.5240 
      4 N         -81.5251   26.0946  -73.0836 N.am      1 UNK        -0.4739 
      5 CA        -82.5414   26.9611  -73.6870 C.3       1 UNK         0.0864 
      6 C6        -82.1737   28.4688  -73.5617 C.3       11 UNK        -0.0881 
      7 S7        -80.4253   28.8555  -73.9523 S.3       11 UNK        -0.2682 
      8 C8        -79.7547   29.2228  -72.2972 C.3       11 UNK         0.0289 
      9 C9        -78.2615   28.9344  -72.2048 C.ar      11 UNK        -0.0687 
     10 C10       -77.7756   28.0554  -71.2308 C.ar      11 UNK        -0.0823 
     11 C11       -76.4054   27.7952  -71.1250 C.ar      11 UNK        -0.0830 
     12 C12       -75.5202   28.4151  -72.0111 C.ar      11 UNK        -0.1021 
     13 C13       -75.9926   29.2854  -72.9974 C.ar      11 UNK        -0.0753 
     14 C14       -77.3618   29.5538  -73.0784 C.ar      11 UNK        -0.0933 
     15 C15       -75.0353   29.8975  -74.0083 C.3       11 UNK         0.0166 
     16 S16       -74.4782   31.5571  -73.5094 S.3       11 UNK        -0.2615 
     17 C17       -73.1529   31.1602  -72.3178 C.3       11 UNK        -0.0865 
     18 CA        -71.7532   31.6467  -72.7768 C.3       10 UNK         0.0862 
     19 C         -70.7040   31.3401  -71.6715 C.2       10 UNK         0.5551 
     20 N         -70.4222   32.2983  -70.7995 N.am      10 UNK        -0.7319 
     21 O         -70.1861   30.2293  -71.5719 O.2       10 UNK        -0.5018 
     22 N         -71.3872   31.0899  -74.0896 N.am      10 UNK        -0.4509 
     23 C         -70.2609   31.3443  -74.7683 C.2       10 UNK         0.4899 
     24 O         -69.4096   32.1549  -74.3985 O.2       10 UNK        -0.4839 
     25 CA        -70.0501   30.5537  -76.0777 C.3       9 UNK         0.0222 
     26 CB        -68.6413   30.7512  -76.6697 C.3       9 UNK        -0.1966 
     27 N         -70.2905   29.1183  -75.8925 N.am      9 UNK        -0.4218 
     28 C         -71.4920   28.5308  -75.9338 C.2       9 UNK         0.5020 
     29 O         -72.5385   29.1445  -76.1505 O.2       9 UNK        -0.5274 
     30 CA        -71.5311   27.0318  -75.5964 C.3       8 UNK         0.0270 
     31 CB        -71.5751   26.8369  -74.0709 C.3       8 UNK        -0.1976 
     32 N         -72.6903   26.3714  -76.2021 N.am      8 UNK        -0.4313 
     33 C         -72.7931   26.0791  -77.5080 C.2       8 UNK         0.5041 
     34 O         -71.8861   26.2814  -78.3180 O.2       8 UNK        -0.5577 
     35 CA        -74.0988   25.4321  -78.0143 C.3       7 UNK         0.0284 
     36 CB        -73.8809   23.9369  -78.2988 C.3       7 UNK        -0.1958 
     37 N         -75.2262   25.5817  -77.0933 N.am      7 UNK        -0.4454 
     38 C         -75.8965   26.7258  -76.8903 C.2       7 UNK         0.5089 
     39 O         -75.7061   27.7499  -77.5461 O.2       7 UNK        -0.5125 
     40 CA        -76.9575   26.7447  -75.7704 C.3       6 UNK         0.0408 
     41 CB        -78.3646   26.7196  -76.3803 C.3       6 UNK        -0.1791 
     42 N         -76.8441   25.6614  -74.7862 N.am      6 UNK        -0.4762 
     43 C         -75.7687   25.4198  -74.0185 C.2       6 UNK         0.5007 
     44 O         -74.7301   26.0765  -74.0853 O.2       6 UNK        -0.5032 
     45 CA        -75.8211   24.1863  -73.0894 C.3       5 UNK         0.0783 
     46 C46       -76.2714   24.5581  -71.6539 C.3       11 UNK        -0.0857 
     47 S47       -74.9752   25.4232  -70.7057 S.3       11 UNK        -0.2512 
     48 C48       -75.8816   26.8598  -70.0409 C.3       11 UNK         0.0225 
     49 N         -76.6437   23.0939  -73.6206 N.am      5 UNK        -0.4615 
     50 C         -76.5129   22.4980  -74.8140 C.2       4 UNK         0.5053 
     51 O         -75.6506   22.7942  -75.6417 O.2       4 UNK        -0.5105 
     52 CA        -77.5477   21.4100  -75.1581 C.3       4 UNK         0.0263 
     53 CB        -78.1920   20.7543  -73.9153 C.3       4 UNK        -0.1981 
     54 N         -78.5949   21.8891  -76.0698 N.am      4 UNK        -0.4224 
     55 C         -79.3707   22.9740  -75.9253 C.2       3 UNK         0.4895 
     56 O         -79.2596   23.8002  -75.0130 O.2       3 UNK        -0.5091 
     57 CA        -80.4807   23.1499  -76.9683 C.3       3 UNK         0.0250 
     58 CB        -81.6345   22.1611  -76.7154 C.3       3 UNK        -0.1996 
     59 N         -80.9760   24.5175  -76.8794 N.am      3 UNK        -0.4254 
     60 C         -81.6241   25.1993  -77.8294 C.2       2 UNK         0.5004 
     61 O         -81.9170   24.7232  -78.9276 O.2       2 UNK        -0.5226 
     62 CA        -81.9755   26.6689  -77.5123 C.3       2 UNK         0.0269 
     63 CB        -83.2814   27.1286  -78.1957 C.3       2 UNK        -0.1926 
     64 N         -81.9883   26.9830  -76.0742 N.am      2 UNK        -0.4687 
     65 C         -82.8226   26.5105  -75.1356 C.2       1 UNK         0.5165 
     66 O         -83.7563   25.7414  -75.3668 O.2       1 UNK        -0.5079 
     67 H67       -80.4668   23.1247  -72.5303 H         1 UNK         0.0900 
     68 H68       -79.5882   24.6355  -72.3073 H         1 UNK         0.0900 
     69 H69       -80.5839   23.9926  -70.9960 H         1 UNK         0.0900 
     70 H70       -80.5876   26.4706  -73.1008 H         1 UNK         0.2959 
     71 H71       -83.4772   26.8173  -73.1413 H         1 UNK         0.1079 
     72 H72       -82.8173   29.0795  -74.1983 H         1 UNK         0.0837 
     73 H73       -82.3911   28.8036  -72.5465 H         1 UNK         0.0837 
     74 H74       -79.9371   30.2719  -72.0610 H         1 UNK         0.0685 
     75 H75       -80.2932   28.6379  -71.5500 H         1 UNK         0.0685 
     76 H76       -78.4647   27.5793  -70.5466 H         1 UNK         0.1434 
     77 H77       -74.4646   28.1910  -71.9491 H         1 UNK         0.1329 
     78 H78       -77.7316   30.2293  -73.8377 H         1 UNK         0.1335 
     79 H79       -74.1776   29.2408  -74.1538 H         1 UNK         0.0680 
     80 H80       -75.5250   29.9684  -74.9809 H         1 UNK         0.0680 
     81 H81       -73.4217   31.6247  -71.3670 H         1 UNK         0.1032 
     82 H82       -73.1314   30.0868  -72.1269 H         1 UNK         0.1032 
     83 H83       -71.7996   32.7300  -72.9052 H         1 UNK         0.0461 
     84 H84       -70.8500   33.2088  -70.8683 H         1 UNK         0.3453 
     85 H85       -69.7571   32.1124  -70.0651 H         1 UNK         0.3453 
     86 H86       -72.0439   30.4367  -74.4982 H         1 UNK         0.2984 
     87 H87       -70.7664   30.9447  -76.8034 H         1 UNK         0.0554 
     88 H88       -68.4494   31.8040  -76.8818 H         1 UNK         0.0847 
     89 H89       -68.5254   30.2099  -77.6088 H         1 UNK         0.0847 
     90 H90       -67.8631   30.4093  -75.9861 H         1 UNK         0.0847 
     91 H91       -69.4849   28.5566  -75.6550 H         1 UNK         0.3141 
     92 H92       -70.6251   26.5597  -75.9826 H         1 UNK         0.0743 
     93 H93       -72.4320   27.3427  -73.6238 H         1 UNK         0.0784 
     94 H94       -71.6357   25.7813  -73.8052 H         1 UNK         0.0784 
     95 H95       -70.6798   27.2402  -73.5960 H         1 UNK         0.0784 
     96 H96       -73.4928   26.2274  -75.5946 H         1 UNK         0.3213 
     97 H97       -74.3595   25.9221  -78.9550 H         1 UNK         0.0855 
     98 H98       -73.5953   23.3934  -77.3973 H         1 UNK         0.0814 
     99 H99       -73.0871   23.7904  -79.0325 H         1 UNK         0.0814 
    100 H100      -74.7820   23.4719  -78.6992 H         1 UNK         0.0814 
    101 H101      -75.4499   24.7793  -76.5143 H         1 UNK         0.3105 
    102 H102      -76.8391   27.6831  -75.2283 H         1 UNK         0.0547 
    103 H103      -79.1292   26.7022  -75.6056 H         1 UNK         0.0837 
    104 H104      -78.5043   25.8466  -77.0177 H         1 UNK         0.0837 
    105 H105      -78.5391   27.6044  -76.9937 H         1 UNK         0.0837 
    106 H106      -77.6374   25.0319  -74.7113 H         1 UNK         0.3020 
    107 H107      -74.8022   23.7958  -73.0389 H         1 UNK         0.1245 
    108 H108      -76.5095   23.6542  -71.0908 H         1 UNK         0.0781 
    109 H109      -77.1917   25.1440  -71.6737 H         1 UNK         0.0781 
    110 H110      -75.2135   27.4219  -69.3871 H         1 UNK         0.0836 
    111 H111      -76.6945   26.5003  -69.4080 H         1 UNK         0.0836 
    112 H112      -77.4137   22.7972  -73.0403 H         1 UNK         0.3022 
    113 H113      -77.0001   20.6320  -75.6924 H         1 UNK         0.0747 
    114 H114      -78.7942   19.8918  -74.2012 H         1 UNK         0.0793 
    115 H115      -77.4331   20.3941  -73.2190 H         1 UNK         0.0793 
    116 H116      -78.8449   21.4393  -73.3742 H         1 UNK         0.0793 
    117 H117      -78.7519   21.3057  -76.8799 H         1 UNK         0.3047 
    118 H118      -80.0560   22.9850  -77.9608 H         1 UNK         0.0822 
    119 H119      -82.4251   22.2740  -77.4574 H         1 UNK         0.0807 
    120 H120      -82.0794   22.3101  -75.7303 H         1 UNK         0.0807 
    121 H121      -81.2912   21.1273  -76.7671 H         1 UNK         0.0807 
    122 H122      -80.7429   24.9779  -76.0087 H         1 UNK         0.2946 
    123 H123      -81.1633   27.2588  -77.9405 H         1 UNK         0.1144 
    124 H124      -83.5050   28.1701  -77.9650 H         1 UNK         0.0793 
    125 H125      -84.1356   26.5247  -77.8888 H         1 UNK         0.0793 
    126 H126      -83.2041   27.0492  -79.2807 H         1 UNK         0.0793 
    127 H127      -81.2703   27.6241  -75.7578 H         1 UNK         0.2896 
@<TRIPOS>BOND
     1    1    2 1    
     2    1   67 1    
     3    1   68 1    
     4    1   69 1    
     5    2    3 2    
     6    2    4 am   BACKBONE|DICT|INTERRES
     7    4    5 1    
     8    4   70 1    
     9    5    6 1    
    10    5   65 1    
    11    5   71 1    
    12    6    7 1    
    13    6   72 1    
    14    6   73 1    
    15    7    8 1    
    16    8    9 1    
    17    8   74 1    
    18    8   75 1    
    19    9   10 ar   
    20    9   14 ar   
    21   10   11 ar   
    22   10   76 1    
    23   11   12 ar   
    24   11   48 1    
    25   12   13 ar   
    26   12   77 1    
    27   13   14 ar   
    28   13   15 1    
    29   14   78 1    
    30   15   16 1    
    31   15   79 1    
    32   15   80 1    
    33   16   17 1    
    34   17   18 1    
    35   17   81 1    
    36   17   82 1    
    37   18   19 1    
    38   18   22 1    
    39   18   83 1    
    40   19   20 am   BACKBONE|DICT|INTERRES
    41   19   21 2    
    42   20   84 1    
    43   20   85 1    
    44   22   23 am   BACKBONE|DICT|INTERRES
    45   22   86 1    
    46   23   24 2    
    47   23   25 1    
    48   25   26 1    
    49   25   27 1    
    50   25   87 1    
    51   26   88 1    
    52   26   89 1    
    53   26   90 1    
    54   27   28 am   BACKBONE|DICT|INTERRES
    55   27   91 1    
    56   28   29 2    
    57   28   30 1    
    58   30   31 1    
    59   30   32 1    
    60   30   92 1    
    61   31   93 1    
    62   31   94 1    
    63   31   95 1    
    64   32   33 am   BACKBONE|DICT|INTERRES
    65   32   96 1    
    66   33   34 2    
    67   33   35 1    
    68   35   36 1    
    69   35   37 1    
    70   35   97 1    
    71   36   98 1    
    72   36   99 1    
    73   36  100 1    
    74   37   38 am   BACKBONE|DICT|INTERRES
    75   37  101 1    
    76   38   39 2    
    77   38   40 1    
    78   40   41 1    
    79   40   42 1    
    80   40  102 1    
    81   41  103 1    
    82   41  104 1    
    83   41  105 1    
    84   42   43 am   BACKBONE|DICT|INTERRES
    85   42  106 1    
    86   43   44 2    
    87   43   45 1    
    88   45   46 1    
    89   45   49 1    
    90   45  107 1    
    91   46   47 1    
    92   46  108 1    
    93   46  109 1    
    94   47   48 1    
    95   48  110 1    
    96   48  111 1    
    97   49   50 am   BACKBONE|DICT|INTERRES
    98   49  112 1    
    99   50   51 2    
   100   50   52 1    
   101   52   53 1    
   102   52   54 1    
   103   52  113 1    
   104   53  114 1    
   105   53  115 1    
   106   53  116 1    
   107   54   55 am   BACKBONE|DICT|INTERRES
   108   54  117 1    
   109   55   56 2    
   110   55   57 1    
   111   57   58 1    
   112   57   59 1    
   113   57  118 1    
   114   58  119 1    
   115   58  120 1    
   116   58  121 1    
   117   59   60 am   BACKBONE|DICT|INTERRES
   118   59  122 1    
   119   60   61 2    
   120   60   62 1    
   121   62   63 1    
   122   62   64 1    
   123   62  123 1    
   124   63  124 1    
   125   63  125 1    
   126   63  126 1    
   127   64   65 am   BACKBONE|DICT|INTERRES
   128   64  127 1    
   129   65   66 2    
@<TRIPOS>SUBSTRUCTURE
     1 UNK         1 GROUP             0       ****    0 ROOT    
