@<TRIPOS>MOLECULE
3R135
127   129    1
SMALL
USER_CHARGES


@<TRIPOS>ATOM
      1 CA        -80.3653   27.4588  -77.9723 C.3       0 UNK        -0.1998 
      2 C         -80.1395   27.3860  -76.4700 C.2       0 UNK         0.4909 
      3 O         -78.9889   27.3425  -76.0370 O.2       0 UNK        -0.5240 
      4 N         -81.2270   27.3729  -75.6908 N.am      1 UNK        -0.4739 
      5 CA        -81.2397   27.2078  -74.2346 C.3       1 UNK         0.0864 
      6 C6        -82.0061   28.3617  -73.5362 C.3       11 UNK        -0.0881 
      7 S7        -81.0990   29.9453  -73.5603 S.3       11 UNK        -0.2682 
      8 C8        -80.7707   30.2260  -71.7860 C.3       11 UNK         0.0289 
      9 C9        -79.4529   29.6039  -71.3445 C.ar      11 UNK        -0.0687 
     10 C10       -79.3325   28.2179  -71.2022 C.ar      11 UNK        -0.0823 
     11 C11       -78.1066   27.6428  -70.8561 C.ar      11 UNK        -0.0830 
     12 C12       -77.0139   28.4704  -70.5801 C.ar      11 UNK        -0.1021 
     13 C13       -77.1236   29.8575  -70.7050 C.ar      11 UNK        -0.0753 
     14 C14       -78.3446   30.4184  -71.0897 C.ar      11 UNK        -0.0933 
     15 C15       -75.9184   30.7475  -70.4360 C.3       11 UNK         0.0166 
     16 S16       -75.2069   31.4334  -71.9676 S.3       11 UNK        -0.2615 
     17 C17       -74.5814   29.9494  -72.8308 C.3       11 UNK        -0.0865 
     18 CA        -73.0287   29.8354  -72.8074 C.3       10 UNK         0.0862 
     19 C         -72.5125   28.8493  -71.7156 C.2       10 UNK         0.5551 
     20 N         -71.6547   27.8846  -72.0306 N.am      10 UNK        -0.7319 
     21 O         -72.8884   28.9651  -70.5527 O.2       10 UNK        -0.5018 
     22 N         -72.5050   29.5506  -74.1511 N.am      10 UNK        -0.4509 
     23 C         -71.3415   30.0040  -74.6325 C.2       10 UNK         0.4899 
     24 O         -70.6030   30.7781  -74.0209 O.2       10 UNK        -0.4839 
     25 CA        -70.9398   29.5082  -76.0351 C.3       9 UNK         0.0222 
     26 CB        -69.4436   29.7288  -76.3444 C.3       9 UNK        -0.1966 
     27 N         -71.3205   28.1150  -76.2968 N.am      9 UNK        -0.4218 
     28 C         -70.9312   27.0170  -75.6275 C.2       9 UNK         0.5020 
     29 O         -70.2113   27.0557  -74.6281 O.2       9 UNK        -0.5274 
     30 CA        -71.4328   25.6432  -76.1281 C.3       8 UNK         0.0270 
     31 CB        -72.0056   24.8042  -74.9716 C.3       8 UNK        -0.1976 
     32 N         -72.4394   25.7337  -77.1891 N.am      8 UNK        -0.4313 
     33 C         -72.1937   26.0024  -78.4785 C.2       8 UNK         0.5041 
     34 O         -71.0634   26.1069  -78.9544 O.2       8 UNK        -0.5577 
     35 CA        -73.4193   26.2649  -79.3702 C.3       7 UNK         0.0284 
     36 CB        -73.9245   24.9557  -79.9944 C.3       7 UNK        -0.1958 
     37 N         -74.5059   26.9273  -78.6372 N.am      7 UNK        -0.4454 
     38 C         -74.4578   28.1970  -78.2050 C.2       7 UNK         0.5089 
     39 O         -73.5101   28.9530  -78.4177 O.2       7 UNK        -0.5125 
     40 CA        -75.6367   28.6922  -77.3480 C.3       6 UNK         0.0408 
     41 CB        -76.7959   29.1649  -78.2382 C.3       6 UNK        -0.1791 
     42 N         -76.1254   27.6832  -76.4064 N.am      6 UNK        -0.4762 
     43 C         -75.4073   27.1514  -75.4072 C.2       6 UNK         0.5007 
     44 O         -74.2609   27.5006  -75.1278 O.2       6 UNK        -0.5032 
     45 CA        -76.0759   26.0150  -74.6116 C.3       5 UNK         0.0783 
     46 C46       -76.9280   26.6116  -73.4673 C.3       11 UNK        -0.0857 
     47 S47       -77.9486   25.4160  -72.5322 S.3       11 UNK        -0.2512 
     48 C48       -77.9352   26.1278  -70.8459 C.3       11 UNK         0.0225 
     49 N         -76.8248   25.1075  -75.4861 N.am      5 UNK        -0.4615 
     50 C         -76.2875   24.3290  -76.4345 C.2       4 UNK         0.5053 
     51 O         -75.0906   24.3567  -76.7270 O.2       4 UNK        -0.5105 
     52 CA        -77.2403   23.3492  -77.1548 C.3       4 UNK         0.0263 
     53 CB        -76.5067   22.3983  -78.1182 C.3       4 UNK        -0.1981 
     54 N         -78.0075   22.5467  -76.1962 N.am      4 UNK        -0.4224 
     55 C         -79.0923   22.9821  -75.5456 C.2       3 UNK         0.4895 
     56 O         -79.5947   24.0877  -75.7594 O.2       3 UNK        -0.5091 
     57 CA        -79.6810   22.0815  -74.4473 C.3       3 UNK         0.0250 
     58 CB        -78.6196   21.2480  -73.7013 C.3       3 UNK        -0.1996 
     59 N         -80.3505   22.9629  -73.4998 N.am      3 UNK        -0.4254 
     60 C         -81.5767   22.8138  -72.9948 C.2       2 UNK         0.5004 
     61 O         -82.2620   21.7982  -73.1195 O.2       2 UNK        -0.5226 
     62 CA        -82.1368   24.0300  -72.2360 C.3       2 UNK         0.0269 
     63 CB        -81.8442   23.9064  -70.7318 C.3       2 UNK        -0.1926 
     64 N         -81.5953   25.3048  -72.7276 N.am      2 UNK        -0.4687 
     65 C         -81.9218   25.8665  -73.9017 C.2       1 UNK         0.5165 
     66 O         -82.7617   25.3927  -74.6724 O.2       1 UNK        -0.5079 
     67 H67       -79.9341   28.3759  -78.3721 H         1 UNK         0.0900 
     68 H68       -81.4247   27.4414  -78.2273 H         1 UNK         0.0900 
     69 H69       -79.8847   26.6124  -78.4621 H         1 UNK         0.0900 
     70 H70       -82.1406   27.3417  -76.1212 H         1 UNK         0.2959 
     71 H71       -80.2166   27.1682  -73.8548 H         1 UNK         0.1079 
     72 H72       -82.9735   28.5203  -74.0168 H         1 UNK         0.0837 
     73 H73       -82.2397   28.1071  -72.5011 H         1 UNK         0.0837 
     74 H74       -81.5898   29.8455  -71.1746 H         1 UNK         0.0685 
     75 H75       -80.7504   31.3031  -71.6135 H         1 UNK         0.0685 
     76 H76       -80.1822   27.5838  -71.3990 H         1 UNK         0.1434 
     77 H77       -76.0630   28.0332  -70.3062 H         1 UNK         0.1329 
     78 H78       -78.4249   31.4912  -71.2011 H         1 UNK         0.1335 
     79 H79       -75.1477   30.2047  -69.8878 H         1 UNK         0.0680 
     80 H80       -76.2219   31.5736  -69.7915 H         1 UNK         0.0680 
     81 H81       -74.9447   30.0273  -73.8569 H         1 UNK         0.1032 
     82 H82       -75.0536   29.0497  -72.4402 H         1 UNK         0.1032 
     83 H83       -72.6303   30.8075  -72.5115 H         1 UNK         0.0461 
     84 H84       -71.3307   27.2638  -71.3068 H         1 UNK         0.3453 
     85 H85       -71.3012   27.7827  -72.9742 H         1 UNK         0.3453 
     86 H86       -73.0293   28.8623  -74.6865 H         1 UNK         0.2984 
     87 H87       -71.5122   30.1122  -76.7403 H         1 UNK         0.0554 
     88 H88       -69.1924   29.3912  -77.3498 H         1 UNK         0.0847 
     89 H89       -68.8026   29.1957  -75.6413 H         1 UNK         0.0847 
     90 H90       -69.1822   30.7860  -76.2851 H         1 UNK         0.0847 
     91 H91       -71.9540   27.9881  -77.0759 H         1 UNK         0.3141 
     92 H92       -70.5640   25.1156  -76.5266 H         1 UNK         0.0743 
     93 H93       -72.8282   25.3151  -74.4721 H         1 UNK         0.0784 
     94 H94       -72.3733   23.8396  -75.3226 H         1 UNK         0.0784 
     95 H95       -71.2436   24.6041  -74.2174 H         1 UNK         0.0784 
     96 H96       -73.4052   25.6046  -76.9051 H         1 UNK         0.3213 
     97 H97       -73.1076   26.9287  -80.1799 H         1 UNK         0.0855 
     98 H98       -74.1472   24.2089  -79.2335 H         1 UNK         0.0814 
     99 H99       -73.1676   24.5261  -80.6520 H         1 UNK         0.0814 
    100 H100      -74.8220   25.1137  -80.5925 H         1 UNK         0.0814 
    101 H101      -75.3011   26.3608  -78.3797 H         1 UNK         0.3105 
    102 H102      -75.2859   29.5456  -76.7638 H         1 UNK         0.0547 
    103 H103      -76.4636   29.9338  -78.9372 H         1 UNK         0.0837 
    104 H104      -77.2153   28.3473  -78.8256 H         1 UNK         0.0837 
    105 H105      -77.6008   29.5956  -77.6422 H         1 UNK         0.0837 
    106 H106      -77.1002   27.4005  -76.4873 H         1 UNK         0.3020 
    107 H107      -75.2758   25.4257  -74.1588 H         1 UNK         0.1245 
    108 H108      -77.5960   27.3935  -73.8333 H         1 UNK         0.0781 
    109 H109      -76.2478   27.0977  -72.7699 H         1 UNK         0.0781 
    110 H110      -76.9990   25.8518  -70.3581 H         1 UNK         0.0836 
    111 H111      -78.7309   25.6710  -70.2559 H         1 UNK         0.0836 
    112 H112      -77.8290   25.0706  -75.3442 H         1 UNK         0.3022 
    113 H113      -77.9311   23.9515  -77.7491 H         1 UNK         0.0747 
    114 H114      -77.1961   21.6912  -78.5800 H         1 UNK         0.0793 
    115 H115      -76.0344   22.9530  -78.9279 H         1 UNK         0.0793 
    116 H116      -75.7285   21.8266  -77.6110 H         1 UNK         0.0793 
    117 H117      -77.6200   21.6481  -75.9470 H         1 UNK         0.3047 
    118 H118      -80.4048   21.4147  -74.9205 H         1 UNK         0.0822 
    119 H119      -78.1701   20.4963  -74.3507 H         1 UNK         0.0807 
    120 H120      -79.0626   20.7132  -72.8608 H         1 UNK         0.0807 
    121 H121      -77.8178   21.8746  -73.3073 H         1 UNK         0.0807 
    122 H122      -79.9088   23.8656  -73.3863 H         1 UNK         0.2946 
    123 H123      -83.2200   24.0351  -72.3794 H         1 UNK         0.1144 
    124 H124      -82.2584   22.9805  -70.3298 H         1 UNK         0.0793 
    125 H125      -82.2896   24.7284  -70.1711 H         1 UNK         0.0793 
    126 H126      -80.7729   23.8993  -70.5266 H         1 UNK         0.0793 
    127 H127      -80.9028   25.7487  -72.1440 H         1 UNK         0.2896 
@<TRIPOS>BOND
     1    1    2 1    
     2    1   67 1    
     3    1   68 1    
     4    1   69 1    
     5    2    3 2    
     6    2    4 am   BACKBONE|DICT|INTERRES
     7    4    5 1    
     8    4   70 1    
     9    5    6 1    
    10    5   65 1    
    11    5   71 1    
    12    6    7 1    
    13    6   72 1    
    14    6   73 1    
    15    7    8 1    
    16    8    9 1    
    17    8   74 1    
    18    8   75 1    
    19    9   10 ar   
    20    9   14 ar   
    21   10   11 ar   
    22   10   76 1    
    23   11   12 ar   
    24   11   48 1    
    25   12   13 ar   
    26   12   77 1    
    27   13   14 ar   
    28   13   15 1    
    29   14   78 1    
    30   15   16 1    
    31   15   79 1    
    32   15   80 1    
    33   16   17 1    
    34   17   18 1    
    35   17   81 1    
    36   17   82 1    
    37   18   19 1    
    38   18   22 1    
    39   18   83 1    
    40   19   20 am   BACKBONE|DICT|INTERRES
    41   19   21 2    
    42   20   84 1    
    43   20   85 1    
    44   22   23 am   BACKBONE|DICT|INTERRES
    45   22   86 1    
    46   23   24 2    
    47   23   25 1    
    48   25   26 1    
    49   25   27 1    
    50   25   87 1    
    51   26   88 1    
    52   26   89 1    
    53   26   90 1    
    54   27   28 am   BACKBONE|DICT|INTERRES
    55   27   91 1    
    56   28   29 2    
    57   28   30 1    
    58   30   31 1    
    59   30   32 1    
    60   30   92 1    
    61   31   93 1    
    62   31   94 1    
    63   31   95 1    
    64   32   33 am   BACKBONE|DICT|INTERRES
    65   32   96 1    
    66   33   34 2    
    67   33   35 1    
    68   35   36 1    
    69   35   37 1    
    70   35   97 1    
    71   36   98 1    
    72   36   99 1    
    73   36  100 1    
    74   37   38 am   BACKBONE|DICT|INTERRES
    75   37  101 1    
    76   38   39 2    
    77   38   40 1    
    78   40   41 1    
    79   40   42 1    
    80   40  102 1    
    81   41  103 1    
    82   41  104 1    
    83   41  105 1    
    84   42   43 am   BACKBONE|DICT|INTERRES
    85   42  106 1    
    86   43   44 2    
    87   43   45 1    
    88   45   46 1    
    89   45   49 1    
    90   45  107 1    
    91   46   47 1    
    92   46  108 1    
    93   46  109 1    
    94   47   48 1    
    95   48  110 1    
    96   48  111 1    
    97   49   50 am   BACKBONE|DICT|INTERRES
    98   49  112 1    
    99   50   51 2    
   100   50   52 1    
   101   52   53 1    
   102   52   54 1    
   103   52  113 1    
   104   53  114 1    
   105   53  115 1    
   106   53  116 1    
   107   54   55 am   BACKBONE|DICT|INTERRES
   108   54  117 1    
   109   55   56 2    
   110   55   57 1    
   111   57   58 1    
   112   57   59 1    
   113   57  118 1    
   114   58  119 1    
   115   58  120 1    
   116   58  121 1    
   117   59   60 am   BACKBONE|DICT|INTERRES
   118   59  122 1    
   119   60   61 2    
   120   60   62 1    
   121   62   63 1    
   122   62   64 1    
   123   62  123 1    
   124   63  124 1    
   125   63  125 1    
   126   63  126 1    
   127   64   65 am   BACKBONE|DICT|INTERRES
   128   64  127 1    
   129   65   66 2    
@<TRIPOS>SUBSTRUCTURE
     1 UNK         1 GROUP             0       ****    0 ROOT    
