@<TRIPOS>MOLECULE
3R135
127   129    1
SMALL
USER_CHARGES


@<TRIPOS>ATOM
      1 CA        -84.3661   28.2255  -72.3233 C.3       0 UNK        -0.1998 
      2 C         -83.1849   27.9626  -71.3928 C.2       0 UNK         0.4909 
      3 O         -83.3925   27.5095  -70.2691 O.2       0 UNK        -0.5240 
      4 N         -81.9344   28.2311  -71.7959 N.am      1 UNK        -0.4739 
      5 CA        -81.5060   28.7283  -73.1122 C.3       1 UNK         0.0864 
      6 C6        -80.0565   29.2725  -73.0750 C.3       11 UNK        -0.0881 
      7 S7        -79.8816   30.7499  -72.0096 S.3       11 UNK        -0.2682 
      8 C8        -79.3869   30.0738  -70.3879 C.3       11 UNK         0.0289 
      9 C9        -78.0531   29.3450  -70.4435 C.ar      11 UNK        -0.0687 
     10 C10       -78.0198   27.9508  -70.5173 C.ar      11 UNK        -0.0823 
     11 C11       -76.8037   27.2730  -70.6304 C.ar      11 UNK        -0.0830 
     12 C12       -75.6081   27.9979  -70.6086 C.ar      11 UNK        -0.1021 
     13 C13       -75.6268   29.3923  -70.5057 C.ar      11 UNK        -0.0753 
     14 C14       -76.8531   30.0610  -70.4282 C.ar      11 UNK        -0.0933 
     15 C15       -74.3223   30.1771  -70.4750 C.3       11 UNK         0.0166 
     16 S16       -73.4188   30.0989  -72.0549 S.3       11 UNK        -0.2615 
     17 C17       -74.5938   30.8818  -73.2152 C.3       11 UNK        -0.0865 
     18 CA        -75.0309   29.9123  -74.3532 C.3       10 UNK         0.0862 
     19 C         -76.2202   30.4602  -75.1996 C.2       10 UNK         0.5551 
     20 N         -76.3331   30.1096  -76.4755 N.am      10 UNK        -0.7319 
     21 O         -77.0679   31.1909  -74.6946 O.2       10 UNK        -0.5018 
     22 N         -73.8981   29.4086  -75.1545 N.am      10 UNK        -0.4509 
     23 C         -73.0540   30.1495  -75.8897 C.2       10 UNK         0.4899 
     24 O         -73.1370   31.3738  -75.9986 O.2       10 UNK        -0.4839 
     25 CA        -71.9476   29.3991  -76.6615 C.3       9 UNK         0.0222 
     26 CB        -70.7125   30.2784  -76.9528 C.3       9 UNK        -0.1966 
     27 N         -71.5628   28.1240  -76.0450 N.am      9 UNK        -0.4218 
     28 C         -70.9823   27.9259  -74.8492 C.2       9 UNK         0.5020 
     29 O         -70.5698   28.8355  -74.1292 O.2       9 UNK        -0.5274 
     30 CA        -70.8558   26.4712  -74.3526 C.3       8 UNK         0.0270 
     31 CB        -71.5248   26.3112  -72.9742 C.3       8 UNK        -0.1976 
     32 N         -71.4716   25.5188  -75.2804 N.am      8 UNK        -0.4313 
     33 C         -70.8154   24.7709  -76.1786 C.2       8 UNK         0.5041 
     34 O         -69.5880   24.7289  -76.2683 O.2       8 UNK        -0.5577 
     35 CA        -71.6681   23.9471  -77.1660 C.3       7 UNK         0.0284 
     36 CB        -71.8265   22.5035  -76.6629 C.3       7 UNK        -0.1958 
     37 N         -72.9967   24.5171  -77.4146 N.am      7 UNK        -0.4454 
     38 C         -73.2274   25.7080  -77.9886 C.2       7 UNK         0.5089 
     39 O         -72.3393   26.4253  -78.4463 O.2       7 UNK        -0.5125 
     40 CA        -74.6754   26.2334  -77.9706 C.3       6 UNK         0.0408 
     41 CB        -75.3684   25.9400  -79.3085 C.3       6 UNK        -0.1791 
     42 N         -75.4788   25.6972  -76.8653 N.am      6 UNK        -0.4762 
     43 C         -75.1917   25.8553  -75.5619 C.2       6 UNK         0.5007 
     44 O         -74.2419   26.5332  -75.1669 O.2       6 UNK        -0.5032 
     45 CA        -76.0485   25.1031  -74.5243 C.3       5 UNK         0.0783 
     46 C46       -76.8276   26.0947  -73.6322 C.3       11 UNK        -0.0857 
     47 S47       -77.7356   25.2498  -72.2904 S.3       11 UNK        -0.2512 
     48 C48       -76.7889   25.7618  -70.8163 C.3       11 UNK         0.0225 
     49 N         -76.9213   24.0970  -75.1368 N.am      5 UNK        -0.4615 
     50 C         -76.5007   22.9172  -75.6152 C.2       4 UNK         0.5053 
     51 O         -75.3211   22.5644  -75.6012 O.2       4 UNK        -0.5105 
     52 CA        -77.5565   21.9844  -76.2385 C.3       4 UNK         0.0263 
     53 CB        -78.0185   20.9413  -75.2086 C.3       4 UNK        -0.1981 
     54 N         -78.7281   22.6896  -76.7659 N.am      4 UNK        -0.4224 
     55 C         -78.7050   23.5674  -77.7793 C.2       3 UNK         0.4895 
     56 O         -77.6941   23.8312  -78.4290 O.2       3 UNK        -0.5091 
     57 CA        -80.0157   24.3133  -78.0913 C.3       3 UNK         0.0250 
     58 CB        -80.7833   23.6002  -79.2159 C.3       3 UNK        -0.1996 
     59 N         -80.9019   24.4927  -76.9327 N.am      3 UNK        -0.4254 
     60 C         -80.5763   25.1521  -75.8113 C.2       2 UNK         0.5004 
     61 O         -79.4633   25.6382  -75.6042 O.2       2 UNK        -0.5226 
     62 CA        -81.6548   25.2122  -74.7166 C.3       2 UNK         0.0269 
     63 CB        -81.6015   23.9397  -73.8545 C.3       2 UNK        -0.1926 
     64 N         -81.5113   26.3764  -73.8382 N.am      2 UNK        -0.4687 
     65 C         -81.6570   27.6560  -74.2133 C.2       1 UNK         0.5165 
     66 O         -81.9524   28.0041  -75.3571 O.2       1 UNK        -0.5079 
     67 H67       -84.3356   29.2345  -72.7326 H         1 UNK         0.0900 
     68 H68       -85.3055   28.1240  -71.7801 H         1 UNK         0.0900 
     69 H69       -84.3812   27.5093  -73.1441 H         1 UNK         0.0900 
     70 H70       -81.1859   28.0625  -71.1420 H         1 UNK         0.2959 
     71 H71       -82.1553   29.5598  -73.3926 H         1 UNK         0.1079 
     72 H72       -79.7457   29.5781  -74.0765 H         1 UNK         0.0837 
     73 H73       -79.3509   28.4957  -72.7815 H         1 UNK         0.0837 
     74 H74       -79.3161   30.8981  -69.6767 H         1 UNK         0.0685 
     75 H75       -80.1702   29.4191  -70.0053 H         1 UNK         0.0685 
     76 H76       -78.9430   27.3885  -70.5316 H         1 UNK         0.1434 
     77 H77       -74.6601   27.4836  -70.6915 H         1 UNK         0.1329 
     78 H78       -76.8778   31.1404  -70.3648 H         1 UNK         0.1335 
     79 H79       -73.6845   29.7756  -69.6865 H         1 UNK         0.0680 
     80 H80       -74.5016   31.2227  -70.2197 H         1 UNK         0.0680 
     81 H81       -75.4632   31.2307  -72.6567 H         1 UNK         0.1032 
     82 H82       -74.1340   31.7815  -73.6252 H         1 UNK         0.1032 
     83 H83       -75.4438   29.0289  -73.8660 H         1 UNK         0.0461 
     84 H84       -77.1067   30.4612  -77.0167 H         1 UNK         0.3453 
     85 H85       -75.6465   29.5101  -76.9013 H         1 UNK         0.3453 
     86 H86       -73.7829   28.3996  -75.1424 H         1 UNK         0.2984 
     87 H87       -72.3891   29.1368  -77.6237 H         1 UNK         0.0554 
     88 H88       -69.9502   29.7242  -77.5002 H         1 UNK         0.0847 
     89 H89       -70.2597   30.6588  -76.0368 H         1 UNK         0.0847 
     90 H90       -70.9820   31.1421  -77.5618 H         1 UNK         0.0847 
     91 H91       -71.8131   27.3052  -76.5860 H         1 UNK         0.3141 
     92 H92       -69.7910   26.2562  -74.2431 H         1 UNK         0.0743 
     93 H93       -71.4449   25.2870  -72.6099 H         1 UNK         0.0784 
     94 H94       -71.0516   26.9554  -72.2318 H         1 UNK         0.0784 
     95 H95       -72.5825   26.5769  -73.0036 H         1 UNK         0.0784 
     96 H96       -72.4860   25.5226  -75.2924 H         1 UNK         0.3213 
     97 H97       -71.1328   23.9234  -78.1178 H         1 UNK         0.0855 
     98 H98       -72.3791   22.4616  -75.7231 H         1 UNK         0.0814 
     99 H99       -70.8538   22.0405  -76.4908 H         1 UNK         0.0814 
    100 H100      -72.3544   21.8850  -77.3890 H         1 UNK         0.0814 
    101 H101      -73.7881   23.9958  -77.0601 H         1 UNK         0.3105 
    102 H102      -74.6280   27.3167  -77.8431 H         1 UNK         0.0547 
    103 H103      -74.8228   26.3922  -80.1379 H         1 UNK         0.0837 
    104 H104      -75.4288   24.8689  -79.5051 H         1 UNK         0.0837 
    105 H105      -76.3814   26.3423  -79.3299 H         1 UNK         0.0837 
    106 H106      -76.2702   25.1182  -77.1201 H         1 UNK         0.3020 
    107 H107      -75.3395   24.5763  -73.8811 H         1 UNK         0.1245 
    108 H108      -77.5410   26.6731  -74.2209 H         1 UNK         0.0781 
    109 H109      -76.1430   26.8250  -73.2000 H         1 UNK         0.0781 
    110 H110      -75.7679   25.3866  -70.9020 H         1 UNK         0.0836 
    111 H111      -77.2203   25.2884  -69.9333 H         1 UNK         0.0836 
    112 H112      -77.8989   24.3577  -75.2157 H         1 UNK         0.3022 
    113 H113      -77.0794   21.4612  -77.0699 H         1 UNK         0.0747 
    114 H114      -78.7046   20.2199  -75.6530 H         1 UNK         0.0793 
    115 H115      -77.1700   20.3788  -74.8159 H         1 UNK         0.0793 
    116 H116      -78.5212   21.4070  -74.3597 H         1 UNK         0.0793 
    117 H117      -79.6051   22.5349  -76.2912 H         1 UNK         0.3047 
    118 H118      -79.7387   25.3089  -78.4448 H         1 UNK         0.0822 
    119 H119      -81.1176   22.6075  -78.9116 H         1 UNK         0.0807 
    120 H120      -80.1548   23.4756  -80.0991 H         1 UNK         0.0807 
    121 H121      -81.6594   24.1713  -79.5238 H         1 UNK         0.0807 
    122 H122      -81.8308   24.1043  -77.0161 H         1 UNK         0.2946 
    123 H123      -82.6331   25.2766  -75.1984 H         1 UNK         0.1144 
    124 H124      -80.6397   23.8366  -73.3493 H         1 UNK         0.0793 
    125 H125      -81.7494   23.0447  -74.4601 H         1 UNK         0.0793 
    126 H126      -82.3814   23.9430  -73.0927 H         1 UNK         0.0793 
    127 H127      -81.2544   26.1890  -72.8803 H         1 UNK         0.2896 
@<TRIPOS>BOND
     1    1    2 1    
     2    1   67 1    
     3    1   68 1    
     4    1   69 1    
     5    2    3 2    
     6    2    4 am   BACKBONE|DICT|INTERRES
     7    4    5 1    
     8    4   70 1    
     9    5    6 1    
    10    5   65 1    
    11    5   71 1    
    12    6    7 1    
    13    6   72 1    
    14    6   73 1    
    15    7    8 1    
    16    8    9 1    
    17    8   74 1    
    18    8   75 1    
    19    9   10 ar   
    20    9   14 ar   
    21   10   11 ar   
    22   10   76 1    
    23   11   12 ar   
    24   11   48 1    
    25   12   13 ar   
    26   12   77 1    
    27   13   14 ar   
    28   13   15 1    
    29   14   78 1    
    30   15   16 1    
    31   15   79 1    
    32   15   80 1    
    33   16   17 1    
    34   17   18 1    
    35   17   81 1    
    36   17   82 1    
    37   18   19 1    
    38   18   22 1    
    39   18   83 1    
    40   19   20 am   BACKBONE|DICT|INTERRES
    41   19   21 2    
    42   20   84 1    
    43   20   85 1    
    44   22   23 am   BACKBONE|DICT|INTERRES
    45   22   86 1    
    46   23   24 2    
    47   23   25 1    
    48   25   26 1    
    49   25   27 1    
    50   25   87 1    
    51   26   88 1    
    52   26   89 1    
    53   26   90 1    
    54   27   28 am   BACKBONE|DICT|INTERRES
    55   27   91 1    
    56   28   29 2    
    57   28   30 1    
    58   30   31 1    
    59   30   32 1    
    60   30   92 1    
    61   31   93 1    
    62   31   94 1    
    63   31   95 1    
    64   32   33 am   BACKBONE|DICT|INTERRES
    65   32   96 1    
    66   33   34 2    
    67   33   35 1    
    68   35   36 1    
    69   35   37 1    
    70   35   97 1    
    71   36   98 1    
    72   36   99 1    
    73   36  100 1    
    74   37   38 am   BACKBONE|DICT|INTERRES
    75   37  101 1    
    76   38   39 2    
    77   38   40 1    
    78   40   41 1    
    79   40   42 1    
    80   40  102 1    
    81   41  103 1    
    82   41  104 1    
    83   41  105 1    
    84   42   43 am   BACKBONE|DICT|INTERRES
    85   42  106 1    
    86   43   44 2    
    87   43   45 1    
    88   45   46 1    
    89   45   49 1    
    90   45  107 1    
    91   46   47 1    
    92   46  108 1    
    93   46  109 1    
    94   47   48 1    
    95   48  110 1    
    96   48  111 1    
    97   49   50 am   BACKBONE|DICT|INTERRES
    98   49  112 1    
    99   50   51 2    
   100   50   52 1    
   101   52   53 1    
   102   52   54 1    
   103   52  113 1    
   104   53  114 1    
   105   53  115 1    
   106   53  116 1    
   107   54   55 am   BACKBONE|DICT|INTERRES
   108   54  117 1    
   109   55   56 2    
   110   55   57 1    
   111   57   58 1    
   112   57   59 1    
   113   57  118 1    
   114   58  119 1    
   115   58  120 1    
   116   58  121 1    
   117   59   60 am   BACKBONE|DICT|INTERRES
   118   59  122 1    
   119   60   61 2    
   120   60   62 1    
   121   62   63 1    
   122   62   64 1    
   123   62  123 1    
   124   63  124 1    
   125   63  125 1    
   126   63  126 1    
   127   64   65 am   BACKBONE|DICT|INTERRES
   128   64  127 1    
   129   65   66 2    
@<TRIPOS>SUBSTRUCTURE
     1 UNK         1 GROUP             0       ****    0 ROOT    
