@<TRIPOS>MOLECULE
3R135
127   129    1
SMALL
USER_CHARGES


@<TRIPOS>ATOM
      1 CA        -80.3879   25.4240  -69.3381 C.3       0 UNK        -0.1998 
      2 C         -81.3597   25.7885  -70.4498 C.2       0 UNK         0.4909 
      3 O         -82.5653   25.8572  -70.2086 O.2       0 UNK        -0.5240 
      4 N         -80.8491   26.0169  -71.6645 N.am      1 UNK        -0.4739 
      5 CA        -81.6379   26.2873  -72.8645 C.3       1 UNK         0.0864 
      6 C6        -82.2134   27.7362  -72.9334 C.3       11 UNK        -0.0881 
      7 S7        -81.0861   29.0548  -73.5231 S.3       11 UNK        -0.2682 
      8 C8        -80.8849   30.1305  -72.0633 C.3       11 UNK         0.0289 
      9 C9        -79.4519   30.0773  -71.5636 C.ar      11 UNK        -0.0687 
     10 C10       -79.0096   28.9525  -70.8677 C.ar      11 UNK        -0.0823 
     11 C11       -77.6677   28.8237  -70.5103 C.ar      11 UNK        -0.0830 
     12 C12       -76.7872   29.8791  -70.7535 C.ar      11 UNK        -0.1021 
     13 C13       -77.2128   31.0111  -71.4540 C.ar      11 UNK        -0.0753 
     14 C14       -78.5500   31.1067  -71.8560 C.ar      11 UNK        -0.0933 
     15 C15       -76.2135   32.0982  -71.8262 C.3       11 UNK         0.0166 
     16 S16       -75.1962   31.6105  -73.2629 S.3       11 UNK        -0.2615 
     17 C17       -74.0151   30.4435  -72.5008 C.3       11 UNK        -0.0865 
     18 CA        -72.6192   30.4717  -73.1666 C.3       10 UNK         0.0862 
     19 C         -71.5864   29.7033  -72.2992 C.2       10 UNK         0.5551 
     20 N         -70.6793   30.4080  -71.6372 N.am      10 UNK        -0.7319 
     21 O         -71.6368   28.4806  -72.1848 O.2       10 UNK        -0.5018 
     22 N         -72.6576   29.9232  -74.5272 N.am      10 UNK        -0.4509 
     23 C         -71.7031   30.1320  -75.4419 C.2       10 UNK         0.4899 
     24 O         -70.7696   30.9233  -75.2927 O.2       10 UNK        -0.4839 
     25 CA        -71.8116   29.2961  -76.7286 C.3       9 UNK         0.0222 
     26 CB        -70.6513   29.5380  -77.7171 C.3       9 UNK        -0.1966 
     27 N         -71.9636   27.8669  -76.4385 N.am      9 UNK        -0.4218 
     28 C         -71.1176   27.0597  -75.7771 C.2       9 UNK         0.5020 
     29 O         -70.0193   27.4126  -75.3453 O.2       9 UNK        -0.5274 
     30 CA        -71.5665   25.6004  -75.5539 C.3       8 UNK         0.0270 
     31 CB        -72.0362   25.4058  -74.1035 C.3       8 UNK        -0.1976 
     32 N         -72.6278   25.1668  -76.4685 N.am      8 UNK        -0.4313 
     33 C         -72.4619   24.9763  -77.7857 C.2       8 UNK         0.5041 
     34 O         -71.3713   25.0325  -78.3551 O.2       8 UNK        -0.5577 
     35 CA        -73.7315   24.7269  -78.6151 C.3       7 UNK         0.0284 
     36 CB        -74.0867   23.2315  -78.6257 C.3       7 UNK        -0.1958 
     37 N         -74.8792   25.5030  -78.1369 N.am      7 UNK        -0.4454 
     38 C         -74.9778   26.8398  -78.1701 C.2       7 UNK         0.5089 
     39 O         -74.1213   27.5773  -78.6551 O.2       7 UNK        -0.5125 
     40 CA        -76.2104   27.4635  -77.4955 C.3       6 UNK         0.0408 
     41 CB        -77.4530   27.3568  -78.3946 C.3       6 UNK        -0.1791 
     42 N         -76.4816   26.8536  -76.1933 N.am      6 UNK        -0.4762 
     43 C         -75.7290   27.0250  -75.0955 C.2       6 UNK         0.5007 
     44 O         -74.7529   27.7764  -75.0462 O.2       6 UNK        -0.5032 
     45 CA        -76.1120   26.1967  -73.8507 C.3       5 UNK         0.0783 
     46 C46       -76.9037   27.0554  -72.8434 C.3       11 UNK        -0.0857 
     47 S47       -77.2643   26.1798  -71.2742 S.3       11 UNK        -0.2512 
     48 C48       -77.1370   27.4924  -70.0009 C.3       11 UNK         0.0225 
     49 N         -76.8166   24.9599  -74.2069 N.am      5 UNK        -0.4615 
     50 C         -76.2007   23.8933  -74.7300 C.2       4 UNK         0.5053 
     51 O         -75.0027   23.8734  -75.0191 O.2       4 UNK        -0.5105 
     52 CA        -77.0684   22.6518  -74.9963 C.3       4 UNK         0.0263 
     53 CB        -77.6044   22.0672  -73.6780 C.3       4 UNK        -0.1981 
     54 N         -78.1850   22.8633  -75.9257 N.am      4 UNK        -0.4224 
     55 C         -78.1026   23.4062  -77.1494 C.2       3 UNK         0.4895 
     56 O         -77.0873   23.9285  -77.5995 O.2       3 UNK        -0.5091 
     57 CA        -79.3521   23.3656  -78.0455 C.3       3 UNK         0.0250 
     58 CB        -79.1595   22.3239  -79.1594 C.3       3 UNK        -0.1996 
     59 N         -80.5866   23.0550  -77.3190 N.am      3 UNK        -0.4254 
     60 C         -81.3488   23.8953  -76.6056 C.2       2 UNK         0.5004 
     61 O         -82.3585   23.4970  -76.0229 O.2       2 UNK        -0.5226 
     62 CA        -80.9929   25.3973  -76.5372 C.3       2 UNK         0.0269 
     63 CB        -81.6414   26.1649  -77.7018 C.3       2 UNK        -0.1926 
     64 N         -81.4738   25.9655  -75.2801 N.am      2 UNK        -0.4687 
     65 C         -80.8495   25.8271  -74.1052 C.2       1 UNK         0.5165 
     66 O         -79.7193   25.3384  -73.9844 O.2       1 UNK        -0.5079 
     67 H67       -79.4734   24.9831  -69.7324 H         1 UNK         0.0900 
     68 H68       -80.1266   26.3097  -68.7600 H         1 UNK         0.0900 
     69 H69       -80.8405   24.6981  -68.6630 H         1 UNK         0.0900 
     70 H70       -79.8584   25.8986  -71.8444 H         1 UNK         0.2959 
     71 H71       -82.4934   25.6085  -72.8248 H         1 UNK         0.1079 
     72 H72       -83.0672   27.7410  -73.6126 H         1 UNK         0.0837 
     73 H73       -82.6385   28.0120  -71.9682 H         1 UNK         0.0837 
     74 H74       -81.5659   29.8452  -71.2609 H         1 UNK         0.0685 
     75 H75       -81.1531   31.1510  -72.3406 H         1 UNK         0.0685 
     76 H76       -79.6935   28.1407  -70.6814 H         1 UNK         0.1434 
     77 H77       -75.7518   29.7818  -70.4636 H         1 UNK         0.1329 
     78 H78       -78.8813   31.9669  -72.4214 H         1 UNK         0.1335 
     79 H79       -76.7402   33.0214  -72.0724 H         1 UNK         0.0680 
     80 H80       -75.5752   32.3337  -70.9734 H         1 UNK         0.0680 
     81 H81       -74.4346   29.4367  -72.5348 H         1 UNK         0.1032 
     82 H82       -73.9151   30.7027  -71.4455 H         1 UNK         0.1032 
     83 H83       -72.3048   31.5159  -73.2304 H         1 UNK         0.0461 
     84 H84       -70.6346   31.4116  -71.7233 H         1 UNK         0.3453 
     85 H85       -70.0125   29.9249  -71.0559 H         1 UNK         0.3453 
     86 H86       -73.3745   29.2283  -74.7127 H         1 UNK         0.2984 
     87 H87       -72.7339   29.6077  -77.2210 H         1 UNK         0.0554 
     88 H88       -70.6042   30.5865  -78.0133 H         1 UNK         0.0847 
     89 H89       -70.7783   28.9497  -78.6260 H         1 UNK         0.0847 
     90 H90       -69.6851   29.2799  -77.2825 H         1 UNK         0.0847 
     91 H91       -72.8408   27.4666  -76.7445 H         1 UNK         0.3141 
     92 H92       -70.6978   24.9599  -75.7202 H         1 UNK         0.0743 
     93 H93       -71.2301   25.6258  -73.4021 H         1 UNK         0.0784 
     94 H94       -72.8628   26.0718  -73.8575 H         1 UNK         0.0784 
     95 H95       -72.3585   24.3808  -73.9188 H         1 UNK         0.0784 
     96 H96       -73.5469   25.0074  -76.0683 H         1 UNK         0.3213 
     97 H97       -73.5233   25.0375  -79.6412 H         1 UNK         0.0855 
     98 H98       -74.3411   22.8705  -77.6281 H         1 UNK         0.0814 
     99 H99       -73.2504   22.6326  -78.9885 H         1 UNK         0.0814 
    100 H100      -74.9367   23.0316  -79.2783 H         1 UNK         0.0814 
    101 H101      -75.6642   24.9638  -77.7705 H         1 UNK         0.3105 
    102 H102      -76.0035   28.5239  -77.3343 H         1 UNK         0.0547 
    103 H103      -77.7131   26.3220  -78.6154 H         1 UNK         0.0837 
    104 H104      -77.2827   27.8569  -79.3490 H         1 UNK         0.0837 
    105 H105      -78.3196   27.8302  -77.9328 H         1 UNK         0.0837 
    106 H106      -77.2353   26.1839  -76.1463 H         1 UNK         0.3020 
    107 H107      -75.1748   25.9157  -73.3658 H         1 UNK         0.1245 
    108 H108      -77.8481   27.3929  -73.2755 H         1 UNK         0.0781 
    109 H109      -76.3286   27.9544  -72.6239 H         1 UNK         0.0781 
    110 H110      -76.0931   27.5831  -69.6969 H         1 UNK         0.0836 
    111 H111      -77.6910   27.1901  -69.1115 H         1 UNK         0.0836 
    112 H112      -77.8159   24.9323  -74.0199 H         1 UNK         0.3022 
    113 H113      -76.4169   21.9037  -75.4526 H         1 UNK         0.0747 
    114 H114      -78.0827   21.1008  -73.8380 H         1 UNK         0.0793 
    115 H115      -76.7966   21.9112  -72.9614 H         1 UNK         0.0793 
    116 H116      -78.3342   22.7282  -73.2077 H         1 UNK         0.0793 
    117 H117      -79.0759   22.4832  -75.6419 H         1 UNK         0.3047 
    118 H118      -79.4428   24.3393  -78.5283 H         1 UNK         0.0822 
    119 H119      -80.0019   22.3220  -79.8515 H         1 UNK         0.0807 
    120 H120      -79.0516   21.3152  -78.7582 H         1 UNK         0.0807 
    121 H121      -78.2639   22.5379  -79.7452 H         1 UNK         0.0807 
    122 H122      -80.8778   22.0887  -77.3599 H         1 UNK         0.2946 
    123 H123      -79.9125   25.5386  -76.5777 H         1 UNK         0.1144 
    124 H124      -81.3929   27.2258  -77.6627 H         1 UNK         0.0793 
    125 H125      -82.7285   26.0751  -77.6884 H         1 UNK         0.0793 
    126 H126      -81.2992   25.7898  -78.6666 H         1 UNK         0.0793 
    127 H127      -82.4072   26.3496  -75.2935 H         1 UNK         0.2896 
@<TRIPOS>BOND
     1    1    2 1    
     2    1   67 1    
     3    1   68 1    
     4    1   69 1    
     5    2    3 2    
     6    2    4 am   BACKBONE|DICT|INTERRES
     7    4    5 1    
     8    4   70 1    
     9    5    6 1    
    10    5   65 1    
    11    5   71 1    
    12    6    7 1    
    13    6   72 1    
    14    6   73 1    
    15    7    8 1    
    16    8    9 1    
    17    8   74 1    
    18    8   75 1    
    19    9   10 ar   
    20    9   14 ar   
    21   10   11 ar   
    22   10   76 1    
    23   11   12 ar   
    24   11   48 1    
    25   12   13 ar   
    26   12   77 1    
    27   13   14 ar   
    28   13   15 1    
    29   14   78 1    
    30   15   16 1    
    31   15   79 1    
    32   15   80 1    
    33   16   17 1    
    34   17   18 1    
    35   17   81 1    
    36   17   82 1    
    37   18   19 1    
    38   18   22 1    
    39   18   83 1    
    40   19   20 am   BACKBONE|DICT|INTERRES
    41   19   21 2    
    42   20   84 1    
    43   20   85 1    
    44   22   23 am   BACKBONE|DICT|INTERRES
    45   22   86 1    
    46   23   24 2    
    47   23   25 1    
    48   25   26 1    
    49   25   27 1    
    50   25   87 1    
    51   26   88 1    
    52   26   89 1    
    53   26   90 1    
    54   27   28 am   BACKBONE|DICT|INTERRES
    55   27   91 1    
    56   28   29 2    
    57   28   30 1    
    58   30   31 1    
    59   30   32 1    
    60   30   92 1    
    61   31   93 1    
    62   31   94 1    
    63   31   95 1    
    64   32   33 am   BACKBONE|DICT|INTERRES
    65   32   96 1    
    66   33   34 2    
    67   33   35 1    
    68   35   36 1    
    69   35   37 1    
    70   35   97 1    
    71   36   98 1    
    72   36   99 1    
    73   36  100 1    
    74   37   38 am   BACKBONE|DICT|INTERRES
    75   37  101 1    
    76   38   39 2    
    77   38   40 1    
    78   40   41 1    
    79   40   42 1    
    80   40  102 1    
    81   41  103 1    
    82   41  104 1    
    83   41  105 1    
    84   42   43 am   BACKBONE|DICT|INTERRES
    85   42  106 1    
    86   43   44 2    
    87   43   45 1    
    88   45   46 1    
    89   45   49 1    
    90   45  107 1    
    91   46   47 1    
    92   46  108 1    
    93   46  109 1    
    94   47   48 1    
    95   48  110 1    
    96   48  111 1    
    97   49   50 am   BACKBONE|DICT|INTERRES
    98   49  112 1    
    99   50   51 2    
   100   50   52 1    
   101   52   53 1    
   102   52   54 1    
   103   52  113 1    
   104   53  114 1    
   105   53  115 1    
   106   53  116 1    
   107   54   55 am   BACKBONE|DICT|INTERRES
   108   54  117 1    
   109   55   56 2    
   110   55   57 1    
   111   57   58 1    
   112   57   59 1    
   113   57  118 1    
   114   58  119 1    
   115   58  120 1    
   116   58  121 1    
   117   59   60 am   BACKBONE|DICT|INTERRES
   118   59  122 1    
   119   60   61 2    
   120   60   62 1    
   121   62   63 1    
   122   62   64 1    
   123   62  123 1    
   124   63  124 1    
   125   63  125 1    
   126   63  126 1    
   127   64   65 am   BACKBONE|DICT|INTERRES
   128   64  127 1    
   129   65   66 2    
@<TRIPOS>SUBSTRUCTURE
     1 UNK         1 GROUP             0       ****    0 ROOT    
