@<TRIPOS>MOLECULE
3R135
127   129    1
SMALL
USER_CHARGES


@<TRIPOS>ATOM
      1 CA        -83.2165   26.3448  -73.7483 C.3       0 UNK        -0.1998 
      2 C         -82.2329   26.3677  -74.9078 C.2       0 UNK         0.4909 
      3 O         -82.4499   25.6825  -75.9082 O.2       0 UNK        -0.5240 
      4 N         -81.1476   27.1443  -74.7774 N.am      1 UNK        -0.4739 
      5 CA        -80.0492   27.2522  -75.7461 C.3       1 UNK         0.0864 
      6 C6        -78.9407   28.2233  -75.2712 C.3       11 UNK        -0.0881 
      7 S7        -79.5204   29.9300  -74.9889 S.3       11 UNK        -0.2682 
      8 C8        -79.8878   29.9536  -73.2011 C.3       11 UNK         0.0289 
      9 C9        -78.6892   29.5744  -72.3415 C.ar      11 UNK        -0.0687 
     10 C10       -78.6329   28.3233  -71.7201 C.ar      11 UNK        -0.0823 
     11 C11       -77.5418   27.9739  -70.9193 C.ar      11 UNK        -0.0830 
     12 C12       -76.5121   28.9008  -70.7233 C.ar      11 UNK        -0.1021 
     13 C13       -76.5446   30.1513  -71.3558 C.ar      11 UNK        -0.0753 
     14 C14       -77.6416   30.4797  -72.1581 C.ar      11 UNK        -0.0933 
     15 C15       -75.4311   31.1817  -71.1729 C.3       11 UNK         0.0166 
     16 S16       -73.7565   30.4798  -71.0023 S.3       11 UNK        -0.2615 
     17 C17       -73.5377   29.6319  -72.6045 C.3       11 UNK        -0.0865 
     18 CA        -72.1514   28.9429  -72.7191 C.3       10 UNK         0.0862 
     19 C         -72.0919   27.5971  -71.9315 C.2       10 UNK         0.5551 
     20 N         -72.0304   26.4469  -72.5942 N.am      10 UNK        -0.7319 
     21 O         -72.0711   27.5944  -70.7038 O.2       10 UNK        -0.5018 
     22 N         -71.7398   28.8190  -74.1260 N.am      10 UNK        -0.4509 
     23 C         -70.4689   28.6752  -74.5255 C.2       10 UNK         0.4899 
     24 O         -69.4989   28.7781  -73.7738 O.2       10 UNK        -0.4839 
     25 CA        -70.2262   28.3316  -76.0014 C.3       9 UNK         0.0222 
     26 CB        -70.2315   26.8059  -76.1899 C.3       9 UNK        -0.1966 
     27 N         -71.2234   28.9290  -76.8930 N.am      9 UNK        -0.4218 
     28 C         -71.0081   30.0146  -77.6496 C.2       9 UNK         0.5020 
     29 O         -69.9638   30.6681  -77.6295 O.2       9 UNK        -0.5274 
     30 CA        -72.1215   30.4347  -78.6269 C.3       8 UNK         0.0270 
     31 CB        -71.7987   29.9381  -80.0464 C.3       8 UNK        -0.1976 
     32 N         -73.4496   29.9517  -78.2449 N.am      8 UNK        -0.4313 
     33 C         -74.2046   30.5000  -77.2850 C.2       8 UNK         0.5041 
     34 O         -73.8717   31.4863  -76.6274 O.2       8 UNK        -0.5577 
     35 CA        -75.5573   29.8238  -77.0024 C.3       7 UNK         0.0284 
     36 CB        -76.6539   30.4340  -77.8915 C.3       7 UNK        -0.1958 
     37 N         -75.5591   28.3614  -77.1549 N.am      7 UNK        -0.4454 
     38 C         -74.7914   27.5235  -76.4471 C.2       7 UNK         0.5089 
     39 O         -73.8733   27.8867  -75.7073 O.2       7 UNK        -0.5125 
     40 CA        -75.1199   26.0317  -76.5295 C.3       6 UNK         0.0408 
     41 CB        -74.0152   25.2400  -77.2496 C.3       6 UNK        -0.1791 
     42 N         -75.2681   25.6058  -75.1451 N.am      6 UNK        -0.4762 
     43 C         -75.8352   24.4857  -74.6861 C.2       6 UNK         0.5007 
     44 O         -76.1641   23.5460  -75.4117 O.2       6 UNK        -0.5032 
     45 CA        -76.1262   24.4194  -73.1702 C.3       5 UNK         0.0783 
     46 C46       -75.8005   25.7490  -72.4277 C.3       11 UNK        -0.0857 
     47 S47       -75.9496   25.6688  -70.6115 S.3       11 UNK        -0.2512 
     48 C48       -77.4904   26.5911  -70.2743 C.3       11 UNK         0.0225 
     49 N         -77.5358   24.0554  -73.0460 N.am      5 UNK        -0.4615 
     50 C         -78.0467   23.1041  -72.2611 C.2       4 UNK         0.5053 
     51 O         -77.3756   22.4035  -71.5030 O.2       4 UNK        -0.5105 
     52 CA        -79.5670   22.8946  -72.3307 C.3       4 UNK         0.0263 
     53 CB        -80.3100   24.0189  -71.5881 C.3       4 UNK        -0.1981 
     54 N         -80.0556   22.8310  -73.7120 N.am      4 UNK        -0.4224 
     55 C         -80.8104   21.8389  -74.2086 C.2       3 UNK         0.4895 
     56 O         -81.1225   20.8346  -73.5669 O.2       3 UNK        -0.5091 
     57 CA        -81.3470   21.9786  -75.6478 C.3       3 UNK         0.0250 
     58 CB        -82.8589   22.2598  -75.6284 C.3       3 UNK        -0.1996 
     59 N         -80.6776   23.0239  -76.4246 N.am      3 UNK        -0.4254 
     60 C         -79.4789   22.8773  -77.0083 C.2       2 UNK         0.5004 
     61 O         -78.8655   21.8099  -77.0325 O.2       2 UNK        -0.5226 
     62 CA        -78.8443   24.1180  -77.6729 C.3       2 UNK         0.0269 
     63 CB        -78.9346   24.0129  -79.2042 C.3       2 UNK        -0.1926 
     64 N         -79.3954   25.4143  -77.2522 N.am      2 UNK        -0.4687 
     65 C         -79.4265   25.8680  -75.9924 C.2       1 UNK         0.5165 
     66 O         -79.0176   25.2278  -75.0234 O.2       1 UNK        -0.5079 
     67 H67       -82.9187   27.0198  -72.9461 H         1 UNK         0.0900 
     68 H68       -83.2847   25.3381  -73.3369 H         1 UNK         0.0900 
     69 H69       -84.2073   26.6413  -74.0914 H         1 UNK         0.0900 
     70 H70       -81.0299   27.6863  -73.9363 H         1 UNK         0.2959 
     71 H71       -80.4698   27.6270  -76.6815 H         1 UNK         0.1079 
     72 H72       -78.4423   27.8434  -74.3795 H         1 UNK         0.0837 
     73 H73       -78.1582   28.2832  -76.0278 H         1 UNK         0.0837 
     74 H74       -80.2165   30.9578  -72.9297 H         1 UNK         0.0685 
     75 H75       -80.7345   29.2994  -72.9930 H         1 UNK         0.0685 
     76 H76       -79.4380   27.6167  -71.8661 H         1 UNK         0.1434 
     77 H77       -75.6754   28.6345  -70.0921 H         1 UNK         0.1329 
     78 H78       -77.6859   31.4457  -72.6427 H         1 UNK         0.1335 
     79 H79       -75.4209   31.8812  -72.0105 H         1 UNK         0.0680 
     80 H80       -75.6512   31.7705  -70.2817 H         1 UNK         0.0680 
     81 H81       -73.6472   30.3868  -73.3855 H         1 UNK         0.1032 
     82 H82       -74.3463   28.9164  -72.7663 H         1 UNK         0.1032 
     83 H83       -71.4225   29.6023  -72.2432 H         1 UNK         0.0461 
     84 H84       -71.9686   25.5850  -72.0762 H         1 UNK         0.3453 
     85 H85       -72.0217   26.4378  -73.6002 H         1 UNK         0.3453 
     86 H86       -72.4911   28.6529  -74.7908 H         1 UNK         0.2984 
     87 H87       -69.2281   28.6901  -76.2622 H         1 UNK         0.0554 
     88 H88       -70.0299   26.5322  -77.2257 H         1 UNK         0.0847 
     89 H89       -71.1871   26.3669  -75.9055 H         1 UNK         0.0847 
     90 H90       -69.4625   26.3349  -75.5758 H         1 UNK         0.0847 
     91 H91       -72.1356   28.4926  -76.9186 H         1 UNK         0.3141 
     92 H92       -72.1424   31.5267  -78.6476 H         1 UNK         0.0743 
     93 H93       -70.8272   30.3081  -80.3776 H         1 UNK         0.0784 
     94 H94       -71.7664   28.8490  -80.0973 H         1 UNK         0.0784 
     95 H95       -72.5381   30.2877  -80.7674 H         1 UNK         0.0784 
     96 H96       -73.8119   29.1510  -78.7424 H         1 UNK         0.3213 
     97 H97       -75.8093   30.0390  -75.9612 H         1 UNK         0.0855 
     98 H98       -76.6844   31.5192  -77.7819 H         1 UNK         0.0814 
     99 H99       -77.6423   30.0608  -77.6249 H         1 UNK         0.0814 
    100 H100      -76.4860   30.2188  -78.9474 H         1 UNK         0.0814 
    101 H101      -76.2659   27.9743  -77.7634 H         1 UNK         0.3105 
    102 H102      -76.0699   25.8939  -77.0493 H         1 UNK         0.0547 
    103 H103      -73.8439   25.6292  -78.2538 H         1 UNK         0.0837 
    104 H104      -73.0693   25.2865  -76.7120 H         1 UNK         0.0837 
    105 H105      -74.2847   24.1891  -77.3531 H         1 UNK         0.0837 
    106 H106      -74.9957   26.3212  -74.4835 H         1 UNK         0.3020 
    107 H107      -75.4957   23.6234  -72.7680 H         1 UNK         0.1245 
    108 H108      -76.4181   26.5593  -72.8168 H         1 UNK         0.0781 
    109 H109      -74.7669   26.0423  -72.6114 H         1 UNK         0.0781 
    110 H110      -77.6041   26.7016  -69.1953 H         1 UNK         0.0836 
    111 H111      -78.3288   25.9802  -70.6082 H         1 UNK         0.0836 
    112 H112      -78.1469   24.5332  -73.7074 H         1 UNK         0.3022 
    113 H113      -79.7763   21.9576  -71.8104 H         1 UNK         0.0747 
    114 H114      -81.3822   23.8249  -71.5532 H         1 UNK         0.0793 
    115 H115      -79.9634   24.1025  -70.5573 H         1 UNK         0.0793 
    116 H116      -80.1631   24.9872  -72.0682 H         1 UNK         0.0793 
    117 H117      -79.8021   23.6047  -74.3189 H         1 UNK         0.3047 
    118 H118      -81.1912   21.0194  -76.1464 H         1 UNK         0.0822 
    119 H119      -83.2622   22.3415  -76.6378 H         1 UNK         0.0807 
    120 H120      -83.0918   23.1833  -75.0976 H         1 UNK         0.0807 
    121 H121      -83.3991   21.4544  -75.1289 H         1 UNK         0.0807 
    122 H122      -81.1280   23.9318  -76.4503 H         1 UNK         0.2946 
    123 H123      -77.7889   24.1077  -77.3951 H         1 UNK         0.1144 
    124 H124      -78.3884   24.8205  -79.6918 H         1 UNK         0.0793 
    125 H125      -79.9686   24.0468  -79.5497 H         1 UNK         0.0793 
    126 H126      -78.5034   23.0753  -79.5584 H         1 UNK         0.0793 
    127 H127      -79.7913   25.9866  -77.9846 H         1 UNK         0.2896 
@<TRIPOS>BOND
     1    1    2 1    
     2    1   67 1    
     3    1   68 1    
     4    1   69 1    
     5    2    3 2    
     6    2    4 am   BACKBONE|DICT|INTERRES
     7    4    5 1    
     8    4   70 1    
     9    5    6 1    
    10    5   65 1    
    11    5   71 1    
    12    6    7 1    
    13    6   72 1    
    14    6   73 1    
    15    7    8 1    
    16    8    9 1    
    17    8   74 1    
    18    8   75 1    
    19    9   10 ar   
    20    9   14 ar   
    21   10   11 ar   
    22   10   76 1    
    23   11   12 ar   
    24   11   48 1    
    25   12   13 ar   
    26   12   77 1    
    27   13   14 ar   
    28   13   15 1    
    29   14   78 1    
    30   15   16 1    
    31   15   79 1    
    32   15   80 1    
    33   16   17 1    
    34   17   18 1    
    35   17   81 1    
    36   17   82 1    
    37   18   19 1    
    38   18   22 1    
    39   18   83 1    
    40   19   20 am   BACKBONE|DICT|INTERRES
    41   19   21 2    
    42   20   84 1    
    43   20   85 1    
    44   22   23 am   BACKBONE|DICT|INTERRES
    45   22   86 1    
    46   23   24 2    
    47   23   25 1    
    48   25   26 1    
    49   25   27 1    
    50   25   87 1    
    51   26   88 1    
    52   26   89 1    
    53   26   90 1    
    54   27   28 am   BACKBONE|DICT|INTERRES
    55   27   91 1    
    56   28   29 2    
    57   28   30 1    
    58   30   31 1    
    59   30   32 1    
    60   30   92 1    
    61   31   93 1    
    62   31   94 1    
    63   31   95 1    
    64   32   33 am   BACKBONE|DICT|INTERRES
    65   32   96 1    
    66   33   34 2    
    67   33   35 1    
    68   35   36 1    
    69   35   37 1    
    70   35   97 1    
    71   36   98 1    
    72   36   99 1    
    73   36  100 1    
    74   37   38 am   BACKBONE|DICT|INTERRES
    75   37  101 1    
    76   38   39 2    
    77   38   40 1    
    78   40   41 1    
    79   40   42 1    
    80   40  102 1    
    81   41  103 1    
    82   41  104 1    
    83   41  105 1    
    84   42   43 am   BACKBONE|DICT|INTERRES
    85   42  106 1    
    86   43   44 2    
    87   43   45 1    
    88   45   46 1    
    89   45   49 1    
    90   45  107 1    
    91   46   47 1    
    92   46  108 1    
    93   46  109 1    
    94   47   48 1    
    95   48  110 1    
    96   48  111 1    
    97   49   50 am   BACKBONE|DICT|INTERRES
    98   49  112 1    
    99   50   51 2    
   100   50   52 1    
   101   52   53 1    
   102   52   54 1    
   103   52  113 1    
   104   53  114 1    
   105   53  115 1    
   106   53  116 1    
   107   54   55 am   BACKBONE|DICT|INTERRES
   108   54  117 1    
   109   55   56 2    
   110   55   57 1    
   111   57   58 1    
   112   57   59 1    
   113   57  118 1    
   114   58  119 1    
   115   58  120 1    
   116   58  121 1    
   117   59   60 am   BACKBONE|DICT|INTERRES
   118   59  122 1    
   119   60   61 2    
   120   60   62 1    
   121   62   63 1    
   122   62   64 1    
   123   62  123 1    
   124   63  124 1    
   125   63  125 1    
   126   63  126 1    
   127   64   65 am   BACKBONE|DICT|INTERRES
   128   64  127 1    
   129   65   66 2    
@<TRIPOS>SUBSTRUCTURE
     1 UNK         1 GROUP             0       ****    0 ROOT    
