@<TRIPOS>MOLECULE
3R135
127   129    1
SMALL
USER_CHARGES


@<TRIPOS>ATOM
      1 CA        -84.3338   26.1726  -69.6520 C.3       0 UNK        -0.1998 
      2 C         -83.9633   27.0437  -70.8429 C.2       0 UNK         0.4909 
      3 O         -84.1756   28.2564  -70.8061 O.2       0 UNK        -0.5240 
      4 N         -83.4166   26.4348  -71.8982 N.am      1 UNK        -0.4739 
      5 CA        -82.9883   27.0913  -73.1324 C.3       1 UNK         0.0864 
      6 C6        -81.6621   27.8911  -72.9887 C.3       11 UNK        -0.0881 
      7 S7        -80.3149   27.0039  -72.1245 S.3       11 UNK        -0.2682 
      8 C8        -79.2954   28.3788  -71.4937 C.3       11 UNK         0.0289 
      9 C9        -78.0668   28.6181  -72.3611 C.ar      11 UNK        -0.0687 
     10 C10       -78.2104   28.9709  -73.7058 C.ar      11 UNK        -0.0823 
     11 C11       -77.0882   29.1393  -74.5199 C.ar      11 UNK        -0.0830 
     12 C12       -75.8108   29.0130  -73.9686 C.ar      11 UNK        -0.1021 
     13 C13       -75.6521   28.6906  -72.6183 C.ar      11 UNK        -0.0753 
     14 C14       -76.7826   28.4817  -71.8218 C.ar      11 UNK        -0.0933 
     15 C15       -74.2580   28.5703  -72.0262 C.3       11 UNK         0.0166 
     16 S16       -73.7531   30.1379  -71.2572 S.3       11 UNK        -0.2615 
     17 C17       -71.9415   29.9334  -71.1648 C.3       11 UNK        -0.0865 
     18 CA        -71.2144   30.7224  -72.2881 C.3       10 UNK         0.0862 
     19 C         -69.6777   30.8083  -72.0453 C.2       10 UNK         0.5551 
     20 N         -68.8229   30.5597  -73.0312 N.am      10 UNK        -0.7319 
     21 O         -69.2472   31.1221  -70.9382 O.2       10 UNK        -0.5018 
     22 N         -71.5693   30.2046  -73.6192 N.am      10 UNK        -0.4509 
     23 C         -71.8008   30.9488  -74.7065 C.2       10 UNK         0.4899 
     24 O         -71.8122   32.1809  -74.7080 O.2       10 UNK        -0.4839 
     25 CA        -72.0472   30.1694  -76.0157 C.3       9 UNK         0.0222 
     26 CB        -71.8790   31.0460  -77.2745 C.3       9 UNK        -0.1966 
     27 N         -71.2411   28.9444  -76.1301 N.am      9 UNK        -0.4218 
     28 C         -69.8994   28.8530  -76.0915 C.2       9 UNK         0.5020 
     29 O         -69.1569   29.8182  -75.9065 O.2       9 UNK        -0.5274 
     30 CA        -69.2593   27.4574  -76.2360 C.3       8 UNK         0.0270 
     31 CB        -68.7059   26.9855  -74.8803 C.3       8 UNK        -0.1976 
     32 N         -70.1693   26.4357  -76.7555 N.am      8 UNK        -0.4313 
     33 C         -70.6479   26.3839  -78.0059 C.2       8 UNK         0.5041 
     34 O         -70.2826   27.1364  -78.9097 O.2       8 UNK        -0.5577 
     35 CA        -71.7412   25.3352  -78.2917 C.3       7 UNK         0.0284 
     36 CB        -71.1461   24.1312  -79.0405 C.3       7 UNK        -0.1958 
     37 N         -72.4604   24.8557  -77.1018 N.am      7 UNK        -0.4454 
     38 C         -73.1852   25.6182  -76.2714 C.2       7 UNK         0.5089 
     39 O         -73.2790   26.8444  -76.3662 O.2       7 UNK        -0.5125 
     40 CA        -73.8478   24.8995  -75.0890 C.3       6 UNK         0.0408 
     41 CB        -73.0109   25.0875  -73.8134 C.3       6 UNK        -0.1791 
     42 N         -75.1914   25.4272  -74.8653 N.am      6 UNK        -0.4762 
     43 C         -76.2742   25.0521  -75.5583 C.2       6 UNK         0.5007 
     44 O         -76.2678   24.1674  -76.4182 O.2       6 UNK        -0.5032 
     45 CA        -77.5911   25.7878  -75.2305 C.3       5 UNK         0.0783 
     46 C46       -78.0738   26.6970  -76.3952 C.3       11 UNK        -0.0857 
     47 S47       -76.8500   27.9253  -76.9863 S.3       11 UNK        -0.2512 
     48 C48       -77.2582   29.4048  -76.0061 C.3       11 UNK         0.0225 
     49 N         -78.6279   24.8279  -74.8357 N.am      5 UNK        -0.4615 
     50 C         -78.5677   24.0463  -73.7439 C.2       4 UNK         0.5053 
     51 O         -77.6635   24.1227  -72.9110 O.2       4 UNK        -0.5105 
     52 CA        -79.6753   22.9945  -73.5235 C.3       4 UNK         0.0263 
     53 CB        -80.4629   23.2636  -72.2303 C.3       4 UNK        -0.1981 
     54 N         -80.6096   22.8806  -74.6451 N.am      4 UNK        -0.4224 
     55 C         -80.3520   22.1998  -75.7721 C.2       3 UNK         0.4895 
     56 O         -79.3307   21.5337  -75.9447 O.2       3 UNK        -0.5091 
     57 CA        -81.3887   22.2710  -76.9105 C.3       3 UNK         0.0250 
     58 CB        -82.2045   20.9692  -76.9749 C.3       3 UNK        -0.1996 
     59 N         -82.3118   23.4075  -76.8336 N.am      3 UNK        -0.4254 
     60 C         -81.9645   24.7013  -76.8722 C.2       2 UNK         0.5004 
     61 O         -80.8006   25.0915  -76.9603 O.2       2 UNK        -0.5226 
     62 CA        -83.0943   25.7421  -76.7541 C.3       2 UNK         0.0269 
     63 CB        -84.5155   25.1509  -76.9044 C.3       2 UNK        -0.1926 
     64 N         -83.0040   26.5222  -75.5125 N.am      2 UNK        -0.4687 
     65 C         -82.9523   26.0440  -74.2593 C.2       1 UNK         0.5165 
     66 O         -82.9088   24.8408  -73.9799 O.2       1 UNK        -0.5079 
     67 H67       -83.8058   26.5118  -68.7613 H         1 UNK         0.0900 
     68 H68       -85.4043   26.2349  -69.4593 H         1 UNK         0.0900 
     69 H69       -84.0787   25.1261  -69.8185 H         1 UNK         0.0900 
     70 H70       -83.2920   25.4299  -71.9156 H         1 UNK         0.2959 
     71 H71       -83.7759   27.7959  -73.4101 H         1 UNK         0.1079 
     72 H72       -81.3029   28.2222  -73.9637 H         1 UNK         0.0837 
     73 H73       -81.8772   28.8048  -72.4331 H         1 UNK         0.0837 
     74 H74       -79.8782   29.2978  -71.4254 H         1 UNK         0.0685 
     75 H75       -78.9969   28.1347  -70.4731 H         1 UNK         0.0685 
     76 H76       -79.1981   29.0733  -74.1301 H         1 UNK         0.1434 
     77 H77       -74.9415   29.1494  -74.5971 H         1 UNK         0.1329 
     78 H78       -76.6590   28.2210  -70.7795 H         1 UNK         0.1335 
     79 H79       -73.5480   28.3009  -72.8083 H         1 UNK         0.0680 
     80 H80       -74.2251   27.7705  -71.2847 H         1 UNK         0.0680 
     81 H81       -71.6749   28.8755  -71.1926 H         1 UNK         0.1032 
     82 H82       -71.6328   30.2933  -70.1814 H         1 UNK         0.1032 
     83 H83       -71.5587   31.7559  -72.2174 H         1 UNK         0.0461 
     84 H84       -67.8350   30.6299  -72.8471 H         1 UNK         0.3453 
     85 H85       -69.1419   30.3478  -73.9699 H         1 UNK         0.3453 
     86 H86       -71.5455   29.2024  -73.7249 H         1 UNK         0.2984 
     87 H87       -73.0871   29.8425  -75.9828 H         1 UNK         0.0554 
     88 H88       -72.5709   31.8890  -77.2614 H         1 UNK         0.0847 
     89 H89       -72.0805   30.4776  -78.1824 H         1 UNK         0.0847 
     90 H90       -70.8704   31.4536  -77.3509 H         1 UNK         0.0847 
     91 H91       -71.7819   28.0940  -76.2688 H         1 UNK         0.3141 
     92 H92       -68.4250   27.5548  -76.9339 H         1 UNK         0.0743 
     93 H93       -69.4972   26.8621  -74.1397 H         1 UNK         0.0784 
     94 H94       -68.1811   26.0345  -74.9745 H         1 UNK         0.0784 
     95 H95       -67.9929   27.7058  -74.4761 H         1 UNK         0.0784 
     96 H96       -70.5147   25.7564  -76.0939 H         1 UNK         0.3213 
     97 H97       -72.4757   25.8141  -78.9429 H         1 UNK         0.0855 
     98 H98       -70.4228   23.5914  -78.4280 H         1 UNK         0.0814 
     99 H99       -70.6300   24.4511  -79.9469 H         1 UNK         0.0814 
    100 H100      -71.9219   23.4284  -79.3451 H         1 UNK         0.0814 
    101 H101      -72.4281   23.8601  -76.9320 H         1 UNK         0.3105 
    102 H102      -73.9148   23.8304  -75.3025 H         1 UNK         0.0547 
    103 H103      -73.4835   24.6102  -72.9546 H         1 UNK         0.0837 
    104 H104      -72.8652   26.1406  -73.5736 H         1 UNK         0.0837 
    105 H105      -72.0222   24.6408  -73.9256 H         1 UNK         0.0837 
    106 H106      -75.2704   26.1936  -74.2125 H         1 UNK         0.3020 
    107 H107      -77.4143   26.4167  -74.3576 H         1 UNK         0.1245 
    108 H108      -78.9883   27.2177  -76.1069 H         1 UNK         0.0781 
    109 H109      -78.3441   26.0799  -77.2536 H         1 UNK         0.0781 
    110 H110      -78.2759   29.7240  -76.2363 H         1 UNK         0.0836 
    111 H111      -76.6032   30.2238  -76.3070 H         1 UNK         0.0836 
    112 H112      -79.3949   24.7105  -75.4886 H         1 UNK         0.3022 
    113 H113      -79.1687   22.0350  -73.3984 H         1 UNK         0.0747 
    114 H114      -81.1775   22.4658  -72.0285 H         1 UNK         0.0793 
    115 H115      -79.7959   23.3265  -71.3696 H         1 UNK         0.0793 
    116 H116      -81.0149   24.2002  -72.2802 H         1 UNK         0.0793 
    117 H117      -81.4675   23.4191  -74.5769 H         1 UNK         0.3047 
    118 H118      -80.8286   22.3703  -77.8428 H         1 UNK         0.0822 
    119 H119      -82.8726   20.9599  -77.8363 H         1 UNK         0.0807 
    120 H120      -82.8084   20.8273  -76.0776 H         1 UNK         0.0807 
    121 H121      -81.5499   20.1012  -77.0673 H         1 UNK         0.0807 
    122 H122      -83.2906   23.1852  -76.7231 H         1 UNK         0.2946 
    123 H123      -82.9393   26.4408  -77.5782 H         1 UNK         0.1144 
    124 H124      -84.7716   24.4718  -76.0901 H         1 UNK         0.0793 
    125 H125      -84.6215   24.6053  -77.8432 H         1 UNK         0.0793 
    126 H126      -85.2653   25.9422  -76.9147 H         1 UNK         0.0793 
    127 H127      -83.0005   27.5249  -75.6390 H         1 UNK         0.2896 
@<TRIPOS>BOND
     1    1    2 1    
     2    1   67 1    
     3    1   68 1    
     4    1   69 1    
     5    2    3 2    
     6    2    4 am   BACKBONE|DICT|INTERRES
     7    4    5 1    
     8    4   70 1    
     9    5    6 1    
    10    5   65 1    
    11    5   71 1    
    12    6    7 1    
    13    6   72 1    
    14    6   73 1    
    15    7    8 1    
    16    8    9 1    
    17    8   74 1    
    18    8   75 1    
    19    9   10 ar   
    20    9   14 ar   
    21   10   11 ar   
    22   10   76 1    
    23   11   12 ar   
    24   11   48 1    
    25   12   13 ar   
    26   12   77 1    
    27   13   14 ar   
    28   13   15 1    
    29   14   78 1    
    30   15   16 1    
    31   15   79 1    
    32   15   80 1    
    33   16   17 1    
    34   17   18 1    
    35   17   81 1    
    36   17   82 1    
    37   18   19 1    
    38   18   22 1    
    39   18   83 1    
    40   19   20 am   BACKBONE|DICT|INTERRES
    41   19   21 2    
    42   20   84 1    
    43   20   85 1    
    44   22   23 am   BACKBONE|DICT|INTERRES
    45   22   86 1    
    46   23   24 2    
    47   23   25 1    
    48   25   26 1    
    49   25   27 1    
    50   25   87 1    
    51   26   88 1    
    52   26   89 1    
    53   26   90 1    
    54   27   28 am   BACKBONE|DICT|INTERRES
    55   27   91 1    
    56   28   29 2    
    57   28   30 1    
    58   30   31 1    
    59   30   32 1    
    60   30   92 1    
    61   31   93 1    
    62   31   94 1    
    63   31   95 1    
    64   32   33 am   BACKBONE|DICT|INTERRES
    65   32   96 1    
    66   33   34 2    
    67   33   35 1    
    68   35   36 1    
    69   35   37 1    
    70   35   97 1    
    71   36   98 1    
    72   36   99 1    
    73   36  100 1    
    74   37   38 am   BACKBONE|DICT|INTERRES
    75   37  101 1    
    76   38   39 2    
    77   38   40 1    
    78   40   41 1    
    79   40   42 1    
    80   40  102 1    
    81   41  103 1    
    82   41  104 1    
    83   41  105 1    
    84   42   43 am   BACKBONE|DICT|INTERRES
    85   42  106 1    
    86   43   44 2    
    87   43   45 1    
    88   45   46 1    
    89   45   49 1    
    90   45  107 1    
    91   46   47 1    
    92   46  108 1    
    93   46  109 1    
    94   47   48 1    
    95   48  110 1    
    96   48  111 1    
    97   49   50 am   BACKBONE|DICT|INTERRES
    98   49  112 1    
    99   50   51 2    
   100   50   52 1    
   101   52   53 1    
   102   52   54 1    
   103   52  113 1    
   104   53  114 1    
   105   53  115 1    
   106   53  116 1    
   107   54   55 am   BACKBONE|DICT|INTERRES
   108   54  117 1    
   109   55   56 2    
   110   55   57 1    
   111   57   58 1    
   112   57   59 1    
   113   57  118 1    
   114   58  119 1    
   115   58  120 1    
   116   58  121 1    
   117   59   60 am   BACKBONE|DICT|INTERRES
   118   59  122 1    
   119   60   61 2    
   120   60   62 1    
   121   62   63 1    
   122   62   64 1    
   123   62  123 1    
   124   63  124 1    
   125   63  125 1    
   126   63  126 1    
   127   64   65 am   BACKBONE|DICT|INTERRES
   128   64  127 1    
   129   65   66 2    
@<TRIPOS>SUBSTRUCTURE
     1 UNK         1 GROUP             0       ****    0 ROOT    
