@<TRIPOS>MOLECULE
3R135
127   129    1
SMALL
USER_CHARGES


@<TRIPOS>ATOM
      1 CA        -78.2404   29.3667  -74.9250 C.3       0 UNK        -0.1998 
      2 C         -79.7004   28.9661  -74.7985 C.2       0 UNK         0.4909 
      3 O         -80.4726   29.1383  -75.7419 O.2       0 UNK        -0.5240 
      4 N         -80.0713   28.4401  -73.6264 N.am      1 UNK        -0.4739 
      5 CA        -81.4354   28.0727  -73.2217 C.3       1 UNK         0.0864 
      6 C6        -82.4149   29.2775  -73.1267 C.3       11 UNK        -0.0881 
      7 S7        -81.7863   30.7658  -72.2556 S.3       11 UNK        -0.2682 
      8 C8        -81.2339   30.1683  -70.6191 C.3       11 UNK         0.0289 
      9 C9        -79.8045   29.6383  -70.6499 C.ar      11 UNK        -0.0687 
     10 C10       -79.5522   28.2809  -70.4343 C.ar      11 UNK        -0.0823 
     11 C11       -78.2606   27.7699  -70.5690 C.ar      11 UNK        -0.0830 
     12 C12       -77.1988   28.6399  -70.8231 C.ar      11 UNK        -0.1021 
     13 C13       -77.4253   30.0083  -71.0029 C.ar      11 UNK        -0.0753 
     14 C14       -78.7342   30.4985  -70.9223 C.ar      11 UNK        -0.0933 
     15 C15       -76.2656   30.9597  -71.2813 C.3       11 UNK         0.0166 
     16 S16       -75.4531   30.6283  -72.8814 S.3       11 UNK        -0.2615 
     17 C17       -74.1439   29.4433  -72.4102 C.3       11 UNK        -0.0865 
     18 CA        -72.7185   30.0021  -72.6563 C.3       10 UNK         0.0862 
     19 C         -71.6477   29.1155  -71.9505 C.2       10 UNK         0.5551 
     20 N         -70.7100   28.5006  -72.6611 N.am      10 UNK        -0.7319 
     21 O         -71.6673   28.9900  -70.7286 O.2       10 UNK        -0.5018 
     22 N         -72.4767   30.2332  -74.0895 N.am      10 UNK        -0.4509 
     23 C         -71.5112   31.0018  -74.6050 C.2       10 UNK         0.4899 
     24 O         -70.7432   31.6840  -73.9249 O.2       10 UNK        -0.4839 
     25 CA        -71.3577   30.9549  -76.1396 C.3       9 UNK         0.0222 
     26 CB        -70.2799   31.9256  -76.6584 C.3       9 UNK        -0.1966 
     27 N         -71.0413   29.5976  -76.6007 N.am      9 UNK        -0.4218 
     28 C         -71.9278   28.6006  -76.7170 C.2       9 UNK         0.5020 
     29 O         -73.1338   28.7392  -76.4981 O.2       9 UNK        -0.5274 
     30 CA        -71.3637   27.2214  -77.0835 C.3       8 UNK         0.0270 
     31 CB        -70.5951   26.6114  -75.8976 C.3       8 UNK        -0.1976 
     32 N         -72.4692   26.3322  -77.4267 N.am      8 UNK        -0.4313 
     33 C         -72.5528   25.5732  -78.5262 C.2       8 UNK         0.5041 
     34 O         -71.6466   25.4742  -79.3554 O.2       8 UNK        -0.5577 
     35 CA        -73.8569   24.7793  -78.7537 C.3       7 UNK         0.0284 
     36 CB        -73.6224   23.2797  -78.5066 C.3       7 UNK        -0.1958 
     37 N         -74.9781   25.2247  -77.9225 N.am      7 UNK        -0.4454 
     38 C         -75.5910   26.4124  -78.0185 C.2       7 UNK         0.5089 
     39 O         -75.3589   27.2258  -78.9133 O.2       7 UNK        -0.5125 
     40 CA        -76.6233   26.7656  -76.9310 C.3       6 UNK         0.0408 
     41 CB        -78.0378   26.7801  -77.5322 C.3       6 UNK        -0.1791 
     42 N         -76.6015   25.8820  -75.7562 N.am      6 UNK        -0.4762 
     43 C         -75.5977   25.7920  -74.8689 C.2       6 UNK         0.5007 
     44 O         -74.5632   26.4524  -74.9567 O.2       6 UNK        -0.5032 
     45 CA        -75.7097   24.7496  -73.7411 C.3       5 UNK         0.0783 
     46 C46       -76.1592   25.3646  -72.3887 C.3       11 UNK        -0.0857 
     47 S47       -77.9629   25.5617  -72.1737 S.3       11 UNK        -0.2512 
     48 C48       -78.0273   26.2709  -70.4957 C.3       11 UNK         0.0225 
     49 N         -76.5154   23.5919  -74.1454 N.am      5 UNK        -0.4615 
     50 C         -76.0706   22.3292  -74.1880 C.2       4 UNK         0.5053 
     51 O         -74.9230   21.9975  -73.8886 O.2       4 UNK        -0.5105 
     52 CA        -77.0618   21.2363  -74.6330 C.3       4 UNK         0.0263 
     53 CB        -77.7078   20.5740  -73.4053 C.3       4 UNK        -0.1981 
     54 N         -78.1181   21.7124  -75.5286 N.am      4 UNK        -0.4224 
     55 C         -77.9239   22.2032  -76.7605 C.2       3 UNK         0.4895 
     56 O         -76.8233   22.2656  -77.3080 O.2       3 UNK        -0.5091 
     57 CA        -79.1610   22.7450  -77.5028 C.3       3 UNK         0.0250 
     58 CB        -79.7319   21.6657  -78.4367 C.3       3 UNK        -0.1996 
     59 N         -80.2431   23.2674  -76.6526 N.am      3 UNK        -0.4254 
     60 C         -80.1152   24.1878  -75.6863 C.2       2 UNK         0.5004 
     61 O         -79.0311   24.6382  -75.3077 O.2       2 UNK        -0.5226 
     62 CA        -81.4042   24.6567  -75.0046 C.3       2 UNK         0.0269 
     63 CB        -81.9256   23.5932  -74.0214 C.3       2 UNK        -0.1926 
     64 N         -81.1199   25.8914  -74.2798 N.am      2 UNK        -0.4687 
     65 C         -81.9879   26.8775  -74.0277 C.2       1 UNK         0.5165 
     66 O         -83.1684   26.8531  -74.3823 O.2       1 UNK        -0.5079 
     67 H67       -77.9568   29.4672  -75.9718 H         1 UNK         0.0900 
     68 H68       -77.5862   28.6278  -74.4610 H         1 UNK         0.0900 
     69 H69       -78.0758   30.3268  -74.4369 H         1 UNK         0.0900 
     70 H70       -79.3759   28.3466  -72.8969 H         1 UNK         0.2959 
     71 H71       -81.3583   27.6636  -72.2188 H         1 UNK         0.1079 
     72 H72       -82.7061   29.5948  -74.1296 H         1 UNK         0.0837 
     73 H73       -83.3391   28.9689  -72.6347 H         1 UNK         0.0837 
     74 H74       -81.9316   29.4142  -70.2516 H         1 UNK         0.0685 
     75 H75       -81.2815   30.9979  -69.9124 H         1 UNK         0.0685 
     76 H76       -80.3695   27.6085  -70.2123 H         1 UNK         0.1434 
     77 H77       -76.2007   28.2395  -70.9044 H         1 UNK         0.1329 
     78 H78       -78.9276   31.5504  -71.0831 H         1 UNK         0.1335 
     79 H79       -76.6227   31.9905  -71.2963 H         1 UNK         0.0680 
     80 H80       -75.5410   30.9086  -70.4676 H         1 UNK         0.0680 
     81 H81       -74.2934   28.5179  -72.9700 H         1 UNK         0.1032 
     82 H82       -74.2620   29.1818  -71.3584 H         1 UNK         0.1032 
     83 H83       -72.6587   30.9734  -72.1612 H         1 UNK         0.0461 
     84 H84       -70.6743   28.6153  -73.6594 H         1 UNK         0.3453 
     85 H85       -70.0226   27.9358  -72.1878 H         1 UNK         0.3453 
     86 H86       -73.0375   29.6868  -74.7366 H         1 UNK         0.2984 
     87 H87       -72.3130   31.2621  -76.5709 H         1 UNK         0.0554 
     88 H88       -70.2274   31.9154  -77.7473 H         1 UNK         0.0847 
     89 H89       -69.2902   31.6787  -76.2720 H         1 UNK         0.0847 
     90 H90       -70.5006   32.9506  -76.3572 H         1 UNK         0.0847 
     91 H91       -70.0658   29.4004  -76.7753 H         1 UNK         0.3141 
     92 H92       -70.6894   27.3460  -77.9334 H         1 UNK         0.0743 
     93 H93       -71.2316   26.5068  -75.0174 H         1 UNK         0.0784 
     94 H94       -70.2092   25.6227  -76.1467 H         1 UNK         0.0784 
     95 H95       -69.7401   27.2269  -75.6161 H         1 UNK         0.0784 
     96 H96       -73.2837   26.4282  -76.8280 H         1 UNK         0.3213 
     97 H97       -74.1391   24.9159  -79.7998 H         1 UNK         0.0855 
     98 H98       -73.3707   23.0765  -77.4648 H         1 UNK         0.0814 
     99 H99       -72.8021   22.9045  -79.1201 H         1 UNK         0.0814 
    100 H100      -74.5060   22.6932  -78.7590 H         1 UNK         0.0814 
    101 H101      -75.2707   24.6041  -77.1809 H         1 UNK         0.3105 
    102 H102      -76.3828   27.7725  -76.5863 H         1 UNK         0.0547 
    103 H103      -78.1193   27.5306  -78.3194 H         1 UNK         0.0837 
    104 H104      -78.2958   25.8186  -77.9733 H         1 UNK         0.0837 
    105 H105      -78.7932   27.0139  -76.7838 H         1 UNK         0.0837 
    106 H106      -77.4481   25.3369  -75.5960 H         1 UNK         0.3020 
    107 H107      -74.6778   24.4228  -73.5917 H         1 UNK         0.1245 
    108 H108      -75.8131   24.7135  -71.5845 H         1 UNK         0.0781 
    109 H109      -75.6690   26.3244  -72.2175 H         1 UNK         0.0781 
    110 H110      -78.8326   25.7873  -69.9408 H         1 UNK         0.0836 
    111 H111      -77.1098   26.0553  -69.9462 H         1 UNK         0.0836 
    112 H112      -77.4762   23.7889  -74.4068 H         1 UNK         0.3022 
    113 H113      -76.4893   20.4778  -75.1712 H         1 UNK         0.0747 
    114 H114      -78.3466   19.7389  -73.6932 H         1 UNK         0.0793 
    115 H115      -76.9476   20.1795  -72.7294 H         1 UNK         0.0793 
    116 H116      -78.3128   21.2820  -72.8370 H         1 UNK         0.0793 
    117 H117      -79.0591   21.7099  -75.1638 H         1 UNK         0.3047 
    118 H118      -78.8147   23.5723  -78.1235 H         1 UNK         0.0822 
    119 H119      -80.5239   22.0654  -79.0704 H         1 UNK         0.0807 
    120 H120      -80.1405   20.8231  -77.8774 H         1 UNK         0.0807 
    121 H121      -78.9593   21.2727  -79.0996 H         1 UNK         0.0807 
    122 H122      -81.1719   22.9374  -76.8742 H         1 UNK         0.2946 
    123 H123      -82.1511   24.8504  -75.7781 H         1 UNK         0.1144 
    124 H124      -82.8430   23.9219  -73.5327 H         1 UNK         0.0793 
    125 H125      -81.1935   23.3738  -73.2427 H         1 UNK         0.0793 
    126 H126      -82.1524   22.6568  -74.5323 H         1 UNK         0.0793 
    127 H127      -80.1467   26.0056  -74.0204 H         1 UNK         0.2896 
@<TRIPOS>BOND
     1    1    2 1    
     2    1   67 1    
     3    1   68 1    
     4    1   69 1    
     5    2    3 2    
     6    2    4 am   BACKBONE|DICT|INTERRES
     7    4    5 1    
     8    4   70 1    
     9    5    6 1    
    10    5   65 1    
    11    5   71 1    
    12    6    7 1    
    13    6   72 1    
    14    6   73 1    
    15    7    8 1    
    16    8    9 1    
    17    8   74 1    
    18    8   75 1    
    19    9   10 ar   
    20    9   14 ar   
    21   10   11 ar   
    22   10   76 1    
    23   11   12 ar   
    24   11   48 1    
    25   12   13 ar   
    26   12   77 1    
    27   13   14 ar   
    28   13   15 1    
    29   14   78 1    
    30   15   16 1    
    31   15   79 1    
    32   15   80 1    
    33   16   17 1    
    34   17   18 1    
    35   17   81 1    
    36   17   82 1    
    37   18   19 1    
    38   18   22 1    
    39   18   83 1    
    40   19   20 am   BACKBONE|DICT|INTERRES
    41   19   21 2    
    42   20   84 1    
    43   20   85 1    
    44   22   23 am   BACKBONE|DICT|INTERRES
    45   22   86 1    
    46   23   24 2    
    47   23   25 1    
    48   25   26 1    
    49   25   27 1    
    50   25   87 1    
    51   26   88 1    
    52   26   89 1    
    53   26   90 1    
    54   27   28 am   BACKBONE|DICT|INTERRES
    55   27   91 1    
    56   28   29 2    
    57   28   30 1    
    58   30   31 1    
    59   30   32 1    
    60   30   92 1    
    61   31   93 1    
    62   31   94 1    
    63   31   95 1    
    64   32   33 am   BACKBONE|DICT|INTERRES
    65   32   96 1    
    66   33   34 2    
    67   33   35 1    
    68   35   36 1    
    69   35   37 1    
    70   35   97 1    
    71   36   98 1    
    72   36   99 1    
    73   36  100 1    
    74   37   38 am   BACKBONE|DICT|INTERRES
    75   37  101 1    
    76   38   39 2    
    77   38   40 1    
    78   40   41 1    
    79   40   42 1    
    80   40  102 1    
    81   41  103 1    
    82   41  104 1    
    83   41  105 1    
    84   42   43 am   BACKBONE|DICT|INTERRES
    85   42  106 1    
    86   43   44 2    
    87   43   45 1    
    88   45   46 1    
    89   45   49 1    
    90   45  107 1    
    91   46   47 1    
    92   46  108 1    
    93   46  109 1    
    94   47   48 1    
    95   48  110 1    
    96   48  111 1    
    97   49   50 am   BACKBONE|DICT|INTERRES
    98   49  112 1    
    99   50   51 2    
   100   50   52 1    
   101   52   53 1    
   102   52   54 1    
   103   52  113 1    
   104   53  114 1    
   105   53  115 1    
   106   53  116 1    
   107   54   55 am   BACKBONE|DICT|INTERRES
   108   54  117 1    
   109   55   56 2    
   110   55   57 1    
   111   57   58 1    
   112   57   59 1    
   113   57  118 1    
   114   58  119 1    
   115   58  120 1    
   116   58  121 1    
   117   59   60 am   BACKBONE|DICT|INTERRES
   118   59  122 1    
   119   60   61 2    
   120   60   62 1    
   121   62   63 1    
   122   62   64 1    
   123   62  123 1    
   124   63  124 1    
   125   63  125 1    
   126   63  126 1    
   127   64   65 am   BACKBONE|DICT|INTERRES
   128   64  127 1    
   129   65   66 2    
@<TRIPOS>SUBSTRUCTURE
     1 UNK         1 GROUP             0       ****    0 ROOT    
