@<TRIPOS>MOLECULE
3R135
127   129    1
SMALL
USER_CHARGES


@<TRIPOS>ATOM
      1 CA        -82.3815   30.9235  -76.1317 C.3       0 UNK        -0.1998 
      2 C         -81.3115   30.2447  -75.2905 C.2       0 UNK         0.4909 
      3 O         -80.1708   30.7077  -75.2581 O.2       0 UNK        -0.5240 
      4 N         -81.6616   29.1399  -74.6195 N.am      1 UNK        -0.4739 
      5 CA        -80.7885   28.3505  -73.7396 C.3       1 UNK         0.0864 
      6 C6        -81.6189   27.5721  -72.6765 C.3       11 UNK        -0.0881 
      7 S7        -81.9038   28.5841  -71.1858 S.3       11 UNK        -0.2682 
      8 C8        -80.6697   27.8880  -70.0332 C.3       11 UNK         0.0289 
      9 C9        -79.2407   28.2210  -70.4463 C.ar      11 UNK        -0.0687 
     10 C10       -78.5243   27.3544  -71.2771 C.ar      11 UNK        -0.0823 
     11 C11       -77.2297   27.6747  -71.6895 C.ar      11 UNK        -0.0830 
     12 C12       -76.6279   28.8430  -71.2180 C.ar      11 UNK        -0.1021 
     13 C13       -77.3212   29.7159  -70.3708 C.ar      11 UNK        -0.0753 
     14 C14       -78.6322   29.3973  -69.9964 C.ar      11 UNK        -0.0933 
     15 C15       -76.6734   30.9883  -69.8236 C.3       11 UNK         0.0166 
     16 S16       -75.7333   31.9502  -71.0602 S.3       11 UNK        -0.2615 
     17 C17       -74.0494   31.2690  -70.8469 C.3       11 UNK        -0.0865 
     18 CA        -73.2000   31.2569  -72.1476 C.3       10 UNK         0.0862 
     19 C         -71.8097   30.6097  -71.8699 C.2       10 UNK         0.5551 
     20 N         -71.5030   29.4310  -72.4002 N.am      10 UNK        -0.7319 
     21 O         -70.9974   31.1919  -71.1554 O.2       10 UNK        -0.5018 
     22 N         -73.9257   30.6849  -73.2944 N.am      10 UNK        -0.4509 
     23 C         -73.5347   30.7895  -74.5695 C.2       10 UNK         0.4899 
     24 O         -72.5546   31.4364  -74.9444 O.2       10 UNK        -0.4839 
     25 CA        -74.3696   30.0134  -75.6029 C.3       9 UNK         0.0222 
     26 CB        -74.8154   30.9404  -76.7475 C.3       9 UNK        -0.1966 
     27 N         -73.6253   28.8833  -76.1650 N.am      9 UNK        -0.4218 
     28 C         -73.0482   27.8877  -75.4785 C.2       9 UNK         0.5020 
     29 O         -73.1180   27.7681  -74.2533 O.2       9 UNK        -0.5274 
     30 CA        -72.2880   26.8421  -76.3170 C.3       8 UNK         0.0270 
     31 CB        -71.4119   25.9160  -75.4547 C.3       8 UNK        -0.1976 
     32 N         -73.2111   26.0354  -77.1209 N.am      8 UNK        -0.4313 
     33 C         -73.7905   26.4502  -78.2567 C.2       8 UNK         0.5041 
     34 O         -73.5599   27.5530  -78.7578 O.2       8 UNK        -0.5577 
     35 CA        -74.8354   25.5397  -78.9264 C.3       7 UNK         0.0284 
     36 CB        -74.5824   25.3634  -80.4387 C.3       7 UNK        -0.1958 
     37 N         -75.0603   24.2615  -78.2385 N.am      7 UNK        -0.4454 
     38 C         -74.3192   23.1448  -78.2725 C.2       7 UNK         0.5089 
     39 O         -73.2719   23.0260  -78.9092 O.2       7 UNK        -0.5125 
     40 CA        -74.8541   21.9686  -77.4291 C.3       6 UNK         0.0408 
     41 CB        -73.8621   20.7898  -77.3324 C.3       6 UNK        -0.1791 
     42 N         -75.3070   22.3895  -76.0966 N.am      6 UNK        -0.4762 
     43 C         -74.5616   22.9634  -75.1360 C.2       6 UNK         0.5007 
     44 O         -73.3546   23.1688  -75.2601 O.2       6 UNK        -0.5032 
     45 CA        -75.2743   23.4260  -73.8448 C.3       5 UNK         0.0783 
     46 C46       -74.7130   24.7925  -73.3707 C.3       11 UNK        -0.0857 
     47 S47       -75.5434   25.4733  -71.8938 S.3       11 UNK        -0.2512 
     48 C48       -76.5002   26.7933  -72.6895 C.3       11 UNK         0.0225 
     49 N         -76.7258   23.4616  -74.0480 N.am      5 UNK        -0.4615 
     50 C         -77.5951   22.5611  -73.5718 C.2       4 UNK         0.5053 
     51 O         -77.2724   21.6075  -72.8633 O.2       4 UNK        -0.5105 
     52 CA        -79.0747   22.7319  -73.9631 C.3       4 UNK         0.0263 
     53 CB        -79.8723   23.3256  -72.7909 C.3       4 UNK        -0.1981 
     54 N         -79.2681   23.5639  -75.1553 N.am      4 UNK        -0.4224 
     55 C         -78.9452   23.1887  -76.4025 C.2       3 UNK         0.4895 
     56 O         -78.4714   22.0864  -76.6790 O.2       3 UNK        -0.5091 
     57 CA        -79.1230   24.2258  -77.5281 C.3       3 UNK         0.0250 
     58 CB        -80.5091   24.0799  -78.1749 C.3       3 UNK        -0.1996 
     59 N         -78.9291   25.6178  -77.1083 N.am      3 UNK        -0.4254 
     60 C         -77.8189   26.1062  -76.5393 C.2       2 UNK         0.5004 
     61 O         -76.8199   25.4282  -76.2952 O.2       2 UNK        -0.5226 
     62 CA        -77.8343   27.5888  -76.1366 C.3       2 UNK         0.0269 
     63 CB        -77.5792   28.4718  -77.3667 C.3       2 UNK        -0.1926 
     64 N         -79.0340   28.0786  -75.4394 N.am      2 UNK        -0.4687 
     65 C         -79.8037   27.4572  -74.5322 C.2       1 UNK         0.5165 
     66 O         -79.7412   26.2511  -74.2942 O.2       1 UNK        -0.5079 
     67 H67       -82.5277   31.9493  -75.7945 H         1 UNK         0.0900 
     68 H68       -83.3389   30.4064  -76.0692 H         1 UNK         0.0900 
     69 H69       -82.0765   30.9485  -77.1775 H         1 UNK         0.0900 
     70 H70       -82.6081   28.7978  -74.7061 H         1 UNK         0.2959 
     71 H71       -80.1379   29.0483  -73.2063 H         1 UNK         0.1079 
     72 H72       -82.5827   27.2639  -73.0847 H         1 UNK         0.0837 
     73 H73       -81.1480   26.6437  -72.3540 H         1 UNK         0.0837 
     74 H74       -80.8643   28.2826  -69.0348 H         1 UNK         0.0685 
     75 H75       -80.8032   26.8075  -69.9595 H         1 UNK         0.0685 
     76 H76       -78.9820   26.4416  -71.6294 H         1 UNK         0.1434 
     77 H77       -75.6196   29.0673  -71.5263 H         1 UNK         0.1329 
     78 H78       -79.1832   30.0637  -69.3466 H         1 UNK         0.1335 
     79 H79       -76.0285   30.7303  -68.9825 H         1 UNK         0.0680 
     80 H80       -77.4424   31.6487  -69.4198 H         1 UNK         0.0680 
     81 H81       -74.1099   30.2645  -70.4255 H         1 UNK         0.1032 
     82 H82       -73.5488   31.8703  -70.0853 H         1 UNK         0.1032 
     83 H83       -72.9984   32.2991  -72.4036 H         1 UNK         0.0461 
     84 H84       -72.1639   28.9350  -72.9907 H         1 UNK         0.3453 
     85 H85       -70.6008   29.0261  -72.2096 H         1 UNK         0.3453 
     86 H86       -74.7398   30.1334  -73.0748 H         1 UNK         0.2984 
     87 H87       -75.2618   29.6125  -75.1181 H         1 UNK         0.0554 
     88 H88       -75.3822   30.4037  -77.5067 H         1 UNK         0.0847 
     89 H89       -73.9640   31.4054  -77.2465 H         1 UNK         0.0847 
     90 H90       -75.4508   31.7437  -76.3722 H         1 UNK         0.0847 
     91 H91       -73.5397   28.8458  -77.1762 H         1 UNK         0.3141 
     92 H92       -71.6192   27.3848  -76.9888 H         1 UNK         0.0743 
     93 H93       -72.0002   25.3639  -74.7230 H         1 UNK         0.0784 
     94 H94       -70.8745   25.1917  -76.0669 H         1 UNK         0.0784 
     95 H95       -70.6681   26.4909  -74.9017 H         1 UNK         0.0784 
     96 H96       -73.4553   25.1244  -76.7560 H         1 UNK         0.3213 
     97 H97       -75.7799   26.0762  -78.8335 H         1 UNK         0.0855 
     98 H98       -74.6184   26.3250  -80.9521 H         1 UNK         0.0814 
     99 H99       -75.3366   24.7245  -80.8978 H         1 UNK         0.0814 
    100 H100      -73.6025   24.9314  -80.6421 H         1 UNK         0.0814 
    101 H101      -75.8418   24.2817  -77.5894 H         1 UNK         0.3105 
    102 H102      -75.7423   21.6049  -77.9481 H         1 UNK         0.0547 
    103 H103      -73.6282   20.3961  -78.3222 H         1 UNK         0.0837 
    104 H104      -72.9191   21.0865  -76.8725 H         1 UNK         0.0837 
    105 H105      -74.2771   19.9687  -76.7484 H         1 UNK         0.0837 
    106 H106      -76.2971   22.2704  -75.9188 H         1 UNK         0.3020 
    107 H107      -75.0253   22.6865  -73.0805 H         1 UNK         0.1245 
    108 H108      -74.7562   25.5210  -74.1826 H         1 UNK         0.0781 
    109 H109      -73.6558   24.6961  -73.1177 H         1 UNK         0.0781 
    110 H110      -77.2125   26.3386  -73.3774 H         1 UNK         0.0836 
    111 H111      -75.8314   27.4063  -73.2960 H         1 UNK         0.0836 
    112 H112      -77.0597   24.1958  -74.6621 H         1 UNK         0.3022 
    113 H113      -79.4741   21.7384  -74.1776 H         1 UNK         0.0747 
    114 H114      -80.9243   23.4522  -73.0466 H         1 UNK         0.0793 
    115 H115      -79.8256   22.6730  -71.9181 H         1 UNK         0.0793 
    116 H116      -79.4801   24.2966  -72.4900 H         1 UNK         0.0793 
    117 H117      -79.5888   24.5166  -74.9922 H         1 UNK         0.3047 
    118 H118      -78.3686   24.0089  -78.2872 H         1 UNK         0.0822 
    119 H119      -80.6141   24.7324  -79.0419 H         1 UNK         0.0807 
    120 H120      -81.3089   24.3204  -77.4732 H         1 UNK         0.0807 
    121 H121      -80.6740   23.0580  -78.5197 H         1 UNK         0.0807 
    122 H122      -79.7103   26.2449  -77.2348 H         1 UNK         0.2946 
    123 H123      -76.9989   27.7338  -75.4508 H         1 UNK         0.1144 
    124 H124      -77.5310   29.5254  -77.0923 H         1 UNK         0.0793 
    125 H125      -78.3666   28.3627  -78.1134 H         1 UNK         0.0793 
    126 H126      -76.6332   28.2164  -77.8460 H         1 UNK         0.0793 
    127 H127      -79.2212   29.0728  -75.5455 H         1 UNK         0.2896 
@<TRIPOS>BOND
     1    1    2 1    
     2    1   67 1    
     3    1   68 1    
     4    1   69 1    
     5    2    3 2    
     6    2    4 am   BACKBONE|DICT|INTERRES
     7    4    5 1    
     8    4   70 1    
     9    5    6 1    
    10    5   65 1    
    11    5   71 1    
    12    6    7 1    
    13    6   72 1    
    14    6   73 1    
    15    7    8 1    
    16    8    9 1    
    17    8   74 1    
    18    8   75 1    
    19    9   10 ar   
    20    9   14 ar   
    21   10   11 ar   
    22   10   76 1    
    23   11   12 ar   
    24   11   48 1    
    25   12   13 ar   
    26   12   77 1    
    27   13   14 ar   
    28   13   15 1    
    29   14   78 1    
    30   15   16 1    
    31   15   79 1    
    32   15   80 1    
    33   16   17 1    
    34   17   18 1    
    35   17   81 1    
    36   17   82 1    
    37   18   19 1    
    38   18   22 1    
    39   18   83 1    
    40   19   20 am   BACKBONE|DICT|INTERRES
    41   19   21 2    
    42   20   84 1    
    43   20   85 1    
    44   22   23 am   BACKBONE|DICT|INTERRES
    45   22   86 1    
    46   23   24 2    
    47   23   25 1    
    48   25   26 1    
    49   25   27 1    
    50   25   87 1    
    51   26   88 1    
    52   26   89 1    
    53   26   90 1    
    54   27   28 am   BACKBONE|DICT|INTERRES
    55   27   91 1    
    56   28   29 2    
    57   28   30 1    
    58   30   31 1    
    59   30   32 1    
    60   30   92 1    
    61   31   93 1    
    62   31   94 1    
    63   31   95 1    
    64   32   33 am   BACKBONE|DICT|INTERRES
    65   32   96 1    
    66   33   34 2    
    67   33   35 1    
    68   35   36 1    
    69   35   37 1    
    70   35   97 1    
    71   36   98 1    
    72   36   99 1    
    73   36  100 1    
    74   37   38 am   BACKBONE|DICT|INTERRES
    75   37  101 1    
    76   38   39 2    
    77   38   40 1    
    78   40   41 1    
    79   40   42 1    
    80   40  102 1    
    81   41  103 1    
    82   41  104 1    
    83   41  105 1    
    84   42   43 am   BACKBONE|DICT|INTERRES
    85   42  106 1    
    86   43   44 2    
    87   43   45 1    
    88   45   46 1    
    89   45   49 1    
    90   45  107 1    
    91   46   47 1    
    92   46  108 1    
    93   46  109 1    
    94   47   48 1    
    95   48  110 1    
    96   48  111 1    
    97   49   50 am   BACKBONE|DICT|INTERRES
    98   49  112 1    
    99   50   51 2    
   100   50   52 1    
   101   52   53 1    
   102   52   54 1    
   103   52  113 1    
   104   53  114 1    
   105   53  115 1    
   106   53  116 1    
   107   54   55 am   BACKBONE|DICT|INTERRES
   108   54  117 1    
   109   55   56 2    
   110   55   57 1    
   111   57   58 1    
   112   57   59 1    
   113   57  118 1    
   114   58  119 1    
   115   58  120 1    
   116   58  121 1    
   117   59   60 am   BACKBONE|DICT|INTERRES
   118   59  122 1    
   119   60   61 2    
   120   60   62 1    
   121   62   63 1    
   122   62   64 1    
   123   62  123 1    
   124   63  124 1    
   125   63  125 1    
   126   63  126 1    
   127   64   65 am   BACKBONE|DICT|INTERRES
   128   64  127 1    
   129   65   66 2    
@<TRIPOS>SUBSTRUCTURE
     1 UNK         1 GROUP             0       ****    0 ROOT    
