@<TRIPOS>MOLECULE
3R135
127   129    1
SMALL
USER_CHARGES


@<TRIPOS>ATOM
      1 CA        -84.5280   28.1106  -73.2602 C.3       0 UNK        -0.1998 
      2 C         -83.3680   27.7534  -72.3348 C.2       0 UNK         0.4909 
      3 O         -83.6047   27.3546  -71.1964 O.2       0 UNK        -0.5240 
      4 N         -82.1037   27.8793  -72.7625 N.am      1 UNK        -0.4739 
      5 CA        -81.6565   28.3006  -74.0987 C.3       1 UNK         0.0864 
      6 C6        -80.1895   28.7977  -74.0716 C.3       11 UNK        -0.0881 
      7 S7        -80.0154   30.3981  -73.2092 S.3       11 UNK        -0.2682 
      8 C8        -79.4372   29.9224  -71.5461 C.3       11 UNK         0.0289 
      9 C9        -78.0980   29.1975  -71.5695 C.ar      11 UNK        -0.0687 
     10 C10       -78.0080   27.8791  -71.1128 C.ar      11 UNK        -0.0823 
     11 C11       -76.7888   27.1935  -71.1502 C.ar      11 UNK        -0.0830 
     12 C12       -75.6537   27.8530  -71.6284 C.ar      11 UNK        -0.1021 
     13 C13       -75.7176   29.1819  -72.0577 C.ar      11 UNK        -0.0753 
     14 C14       -76.9476   29.8471  -72.0298 C.ar      11 UNK        -0.0933 
     15 C15       -74.4631   29.8967  -72.5497 C.3       11 UNK         0.0166 
     16 S16       -73.1334   29.8521  -71.2982 S.3       11 UNK        -0.2615 
     17 C17       -71.8929   31.1155  -71.7758 C.3       11 UNK        -0.0865 
     18 CA        -71.9527   31.7155  -73.2066 C.3       10 UNK         0.0862 
     19 C         -70.9593   32.9097  -73.3367 C.2       10 UNK         0.5551 
     20 N         -69.9150   32.8258  -74.1526 N.am      10 UNK        -0.7319 
     21 O         -71.1459   33.9345  -72.6853 O.2       10 UNK        -0.5018 
     22 N         -71.7879   30.6800  -74.2385 N.am      10 UNK        -0.4509 
     23 C         -72.1535   30.8110  -75.5181 C.2       10 UNK         0.4899 
     24 O         -72.7276   31.8053  -75.9629 O.2       10 UNK        -0.4839 
     25 CA        -71.8417   29.6472  -76.4753 C.3       9 UNK         0.0222 
     26 CB        -70.4734   29.8419  -77.1574 C.3       9 UNK        -0.1966 
     27 N         -71.9715   28.3028  -75.8939 N.am      9 UNK        -0.4218 
     28 C         -71.2140   27.6987  -74.9638 C.2       9 UNK         0.5020 
     29 O         -70.2716   28.2517  -74.3947 O.2       9 UNK        -0.5274 
     30 CA        -71.5722   26.2522  -74.5617 C.3       8 UNK         0.0270 
     31 CB        -72.0834   26.2201  -73.1129 C.3       8 UNK        -0.1976 
     32 N         -72.5696   25.6230  -75.4337 N.am      8 UNK        -0.4313 
     33 C         -72.3327   25.2013  -76.6864 C.2       8 UNK         0.5041 
     34 O         -71.2115   25.1910  -77.1957 O.2       8 UNK        -0.5577 
     35 CA        -73.5396   24.7500  -77.5376 C.3       7 UNK         0.0284 
     36 CB        -73.6293   23.2156  -77.5642 C.3       7 UNK        -0.1958 
     37 N         -74.8308   25.2936  -77.1039 N.am      7 UNK        -0.4454 
     38 C         -75.1317   26.5908  -76.9480 C.2       7 UNK         0.5089 
     39 O         -74.3780   27.5085  -77.2696 O.2       7 UNK        -0.5125 
     40 CA        -76.4591   26.9264  -76.2466 C.3       6 UNK         0.0408 
     41 CB        -77.5332   27.2971  -77.2794 C.3       6 UNK        -0.1791 
     42 N         -76.9724   25.8606  -75.3806 N.am      6 UNK        -0.4762 
     43 C         -76.3433   25.3034  -74.3335 C.2       6 UNK         0.5007 
     44 O         -75.1919   25.5791  -73.9950 O.2       6 UNK        -0.5032 
     45 CA        -77.1289   24.2119  -73.5845 C.3       5 UNK         0.0783 
     46 C46       -78.3088   24.8137  -72.7680 C.3       11 UNK        -0.0857 
     47 S47       -78.0915   24.6800  -70.9647 S.3       11 UNK        -0.2512 
     48 C48       -76.6505   25.7574  -70.6479 C.3       11 UNK         0.0225 
     49 N         -77.5960   23.2168  -74.5486 N.am      5 UNK        -0.4615 
     50 C         -76.8706   22.1917  -75.0111 C.2       4 UNK         0.5053 
     51 O         -75.7423   21.9144  -74.6056 O.2       4 UNK        -0.5105 
     52 CA        -77.5062   21.3268  -76.1160 C.3       4 UNK         0.0263 
     53 CB        -78.1280   20.0579  -75.5108 C.3       4 UNK        -0.1981 
     54 N         -78.5240   22.0338  -76.9004 N.am      4 UNK        -0.4224 
     55 C         -78.2662   23.0403  -77.7474 C.2       3 UNK         0.4895 
     56 O         -77.1350   23.4633  -77.9854 O.2       3 UNK        -0.5091 
     57 CA        -79.4821   23.7228  -78.4002 C.3       3 UNK         0.0250 
     58 CB        -79.9241   22.9488  -79.6525 C.3       3 UNK        -0.1996 
     59 N         -80.6348   23.9137  -77.5068 N.am      3 UNK        -0.4254 
     60 C         -80.6015   24.5580  -76.3315 C.2       2 UNK         0.5004 
     61 O         -79.5653   24.9676  -75.8058 O.2       2 UNK        -0.5226 
     62 CA        -81.9366   24.7421  -75.5916 C.3       2 UNK         0.0269 
     63 CB        -82.2456   23.5029  -74.7361 C.3       2 UNK        -0.1926 
     64 N         -81.9044   25.9224  -74.7213 N.am      2 UNK        -0.4687 
     65 C         -81.8245   27.1890  -75.1574 C.2       1 UNK         0.5165 
     66 O         -81.8921   27.5019  -76.3467 O.2       1 UNK        -0.5079 
     67 H67       -84.4590   29.1455  -73.5934 H         1 UNK         0.0900 
     68 H68       -85.4783   27.9976  -72.7387 H         1 UNK         0.0900 
     69 H69       -84.5519   27.4573  -74.1314 H         1 UNK         0.0900 
     70 H70       -81.3628   27.6487  -72.1176 H         1 UNK         0.2959 
     71 H71       -82.2783   29.1342  -74.4306 H         1 UNK         0.1079 
     72 H72       -79.8201   28.9585  -75.0867 H         1 UNK         0.0837 
     73 H73       -79.5273   28.0490  -73.6349 H         1 UNK         0.0837 
     74 H74       -79.3380   30.8243  -70.9407 H         1 UNK         0.0685 
     75 H75       -80.2042   29.3163  -71.0623 H         1 UNK         0.0685 
     76 H76       -78.8902   27.3840  -70.7319 H         1 UNK         0.1434 
     77 H77       -74.7062   27.3346  -71.6482 H         1 UNK         0.1329 
     78 H78       -77.0164   30.8717  -72.3690 H         1 UNK         0.1335 
     79 H79       -74.7025   30.9318  -72.7919 H         1 UNK         0.0680 
     80 H80       -74.1210   29.4196  -73.4687 H         1 UNK         0.0680 
     81 H81       -71.9860   31.9162  -71.0393 H         1 UNK         0.1032 
     82 H82       -70.9061   30.6815  -71.6037 H         1 UNK         0.1032 
     83 H83       -72.9379   32.1624  -73.3412 H         1 UNK         0.0461 
     84 H84       -69.2825   33.6067  -74.2296 H         1 UNK         0.3453 
     85 H85       -69.7525   31.9875  -74.6863 H         1 UNK         0.3453 
     86 H86       -71.2712   29.8452  -73.9783 H         1 UNK         0.2984 
     87 H87       -72.5992   29.6887  -77.2595 H         1 UNK         0.0554 
     88 H88       -70.2861   29.0634  -77.8969 H         1 UNK         0.0847 
     89 H89       -69.6513   29.8284  -76.4415 H         1 UNK         0.0847 
     90 H90       -70.4318   30.7995  -77.6781 H         1 UNK         0.0847 
     91 H91       -72.7584   27.7793  -76.2696 H         1 UNK         0.3141 
     92 H92       -70.6540   25.6636  -74.6128 H         1 UNK         0.0743 
     93 H93       -72.3418   25.2082  -72.8001 H         1 UNK         0.0784 
     94 H94       -71.3273   26.5926  -72.4204 H         1 UNK         0.0784 
     95 H95       -72.9670   26.8460  -72.9943 H         1 UNK         0.0784 
     96 H96       -73.5193   25.5796  -75.0713 H         1 UNK         0.3213 
     97 H97       -73.3658   25.1038  -78.5557 H         1 UNK         0.0855 
     98 H98       -73.8417   22.8080  -76.5748 H         1 UNK         0.0814 
     99 H99       -72.6919   22.7740  -77.9055 H         1 UNK         0.0814 
    100 H100      -74.4118   22.8745  -78.2423 H         1 UNK         0.0814 
    101 H101      -75.5548   24.6198  -76.8858 H         1 UNK         0.3105 
    102 H102      -76.2800   27.7955  -75.6102 H         1 UNK         0.0547 
    103 H103      -77.2127   28.1421  -77.8902 H         1 UNK         0.0837 
    104 H104      -77.7404   26.4667  -77.9541 H         1 UNK         0.0837 
    105 H105      -78.4701   27.5796  -76.7989 H         1 UNK         0.0837 
    106 H106      -77.9221   25.5448  -75.5808 H         1 UNK         0.3020 
    107 H107      -76.4289   23.7206  -72.9048 H         1 UNK         0.1245 
    108 H108      -79.2391   24.2916  -72.9976 H         1 UNK         0.0781 
    109 H109      -78.5152   25.8543  -73.0242 H         1 UNK         0.0781 
    110 H110      -75.7685   25.2885  -71.0871 H         1 UNK         0.0836 
    111 H111      -76.4729   25.7868  -69.5722 H         1 UNK         0.0836 
    112 H112      -78.4819   23.4237  -74.9929 H         1 UNK         0.3022 
    113 H113      -76.7052   21.0262  -76.7951 H         1 UNK         0.0747 
    114 H114      -78.5126   19.3951  -76.2863 H         1 UNK         0.0793 
    115 H115      -77.3869   19.4930  -74.9433 H         1 UNK         0.0793 
    116 H116      -78.9480   20.2938  -74.8312 H         1 UNK         0.0793 
    117 H117      -79.4848   21.7543  -76.7649 H         1 UNK         0.3047 
    118 H118      -79.1590   24.7154  -78.7183 H         1 UNK         0.0822 
    119 H119      -80.3095   21.9594  -79.4031 H         1 UNK         0.0807 
    120 H120      -79.0886   22.8092  -80.3403 H         1 UNK         0.0807 
    121 H121      -80.7013   23.4850  -80.1974 H         1 UNK         0.0807 
    122 H122      -81.5259   23.5879  -77.8537 H         1 UNK         0.2946 
    123 H123      -82.7308   24.8795  -76.3290 H         1 UNK         0.1144 
    124 H124      -81.4735   23.3257  -73.9862 H         1 UNK         0.0793 
    125 H125      -82.3131   22.6055  -75.3526 H         1 UNK         0.0793 
    126 H126      -83.1986   23.6076  -74.2170 H         1 UNK         0.0793 
    127 H127      -81.8309   25.7554  -73.7287 H         1 UNK         0.2896 
@<TRIPOS>BOND
     1    1    2 1    
     2    1   67 1    
     3    1   68 1    
     4    1   69 1    
     5    2    3 2    
     6    2    4 am   BACKBONE|DICT|INTERRES
     7    4    5 1    
     8    4   70 1    
     9    5    6 1    
    10    5   65 1    
    11    5   71 1    
    12    6    7 1    
    13    6   72 1    
    14    6   73 1    
    15    7    8 1    
    16    8    9 1    
    17    8   74 1    
    18    8   75 1    
    19    9   10 ar   
    20    9   14 ar   
    21   10   11 ar   
    22   10   76 1    
    23   11   12 ar   
    24   11   48 1    
    25   12   13 ar   
    26   12   77 1    
    27   13   14 ar   
    28   13   15 1    
    29   14   78 1    
    30   15   16 1    
    31   15   79 1    
    32   15   80 1    
    33   16   17 1    
    34   17   18 1    
    35   17   81 1    
    36   17   82 1    
    37   18   19 1    
    38   18   22 1    
    39   18   83 1    
    40   19   20 am   BACKBONE|DICT|INTERRES
    41   19   21 2    
    42   20   84 1    
    43   20   85 1    
    44   22   23 am   BACKBONE|DICT|INTERRES
    45   22   86 1    
    46   23   24 2    
    47   23   25 1    
    48   25   26 1    
    49   25   27 1    
    50   25   87 1    
    51   26   88 1    
    52   26   89 1    
    53   26   90 1    
    54   27   28 am   BACKBONE|DICT|INTERRES
    55   27   91 1    
    56   28   29 2    
    57   28   30 1    
    58   30   31 1    
    59   30   32 1    
    60   30   92 1    
    61   31   93 1    
    62   31   94 1    
    63   31   95 1    
    64   32   33 am   BACKBONE|DICT|INTERRES
    65   32   96 1    
    66   33   34 2    
    67   33   35 1    
    68   35   36 1    
    69   35   37 1    
    70   35   97 1    
    71   36   98 1    
    72   36   99 1    
    73   36  100 1    
    74   37   38 am   BACKBONE|DICT|INTERRES
    75   37  101 1    
    76   38   39 2    
    77   38   40 1    
    78   40   41 1    
    79   40   42 1    
    80   40  102 1    
    81   41  103 1    
    82   41  104 1    
    83   41  105 1    
    84   42   43 am   BACKBONE|DICT|INTERRES
    85   42  106 1    
    86   43   44 2    
    87   43   45 1    
    88   45   46 1    
    89   45   49 1    
    90   45  107 1    
    91   46   47 1    
    92   46  108 1    
    93   46  109 1    
    94   47   48 1    
    95   48  110 1    
    96   48  111 1    
    97   49   50 am   BACKBONE|DICT|INTERRES
    98   49  112 1    
    99   50   51 2    
   100   50   52 1    
   101   52   53 1    
   102   52   54 1    
   103   52  113 1    
   104   53  114 1    
   105   53  115 1    
   106   53  116 1    
   107   54   55 am   BACKBONE|DICT|INTERRES
   108   54  117 1    
   109   55   56 2    
   110   55   57 1    
   111   57   58 1    
   112   57   59 1    
   113   57  118 1    
   114   58  119 1    
   115   58  120 1    
   116   58  121 1    
   117   59   60 am   BACKBONE|DICT|INTERRES
   118   59  122 1    
   119   60   61 2    
   120   60   62 1    
   121   62   63 1    
   122   62   64 1    
   123   62  123 1    
   124   63  124 1    
   125   63  125 1    
   126   63  126 1    
   127   64   65 am   BACKBONE|DICT|INTERRES
   128   64  127 1    
   129   65   66 2    
@<TRIPOS>SUBSTRUCTURE
     1 UNK         1 GROUP             0       ****    0 ROOT    
