@<TRIPOS>MOLECULE
3R135
127   129    1
SMALL
USER_CHARGES


@<TRIPOS>ATOM
      1 CA        -79.8013   30.3837  -75.5154 C.3       0 UNK        -0.1998 
      2 C         -79.8782   29.2029  -74.5604 C.2       0 UNK         0.4909 
      3 O         -78.9932   28.3498  -74.5733 O.2       0 UNK        -0.5240 
      4 N         -80.9332   29.1388  -73.7376 N.am      1 UNK        -0.4739 
      5 CA        -81.1473   28.1053  -72.7165 C.3       1 UNK         0.0864 
      6 C6        -82.0607   28.5992  -71.5606 C.3       11 UNK        -0.0881 
      7 S7        -81.5407   30.1851  -70.8205 S.3       11 UNK        -0.2682 
      8 C8        -80.3954   29.6446  -69.5105 C.3       11 UNK         0.0289 
      9 C9        -79.0419   29.2282  -70.0699 C.ar      11 UNK        -0.0687 
     10 C10       -78.5923   27.9091  -69.9383 C.ar      11 UNK        -0.0823 
     11 C11       -77.3466   27.5314  -70.4502 C.ar      11 UNK        -0.0830 
     12 C12       -76.5413   28.4914  -71.0705 C.ar      11 UNK        -0.1021 
     13 C13       -76.9933   29.8020  -71.2412 C.ar      11 UNK        -0.0753 
     14 C14       -78.2386   30.1684  -70.7252 C.ar      11 UNK        -0.0933 
     15 C15       -76.1471   30.8011  -72.0169 C.3       11 UNK         0.0166 
     16 S16       -76.1016   30.3514  -73.7800 S.3       11 UNK        -0.2615 
     17 C17       -75.1145   31.6869  -74.5478 C.3       11 UNK        -0.0865 
     18 CA        -73.6492   31.8684  -74.0352 C.3       10 UNK         0.0862 
     19 C         -73.5015   32.9121  -72.8892 C.2       10 UNK         0.5551 
     20 N         -72.5773   32.7385  -71.9506 N.am      10 UNK        -0.7319 
     21 O         -74.2212   33.9068  -72.8520 O.2       10 UNK        -0.5018 
     22 N         -72.9654   30.5977  -73.7515 N.am      10 UNK        -0.4509 
     23 C         -72.6108   29.6751  -74.6493 C.2       10 UNK         0.4899 
     24 O         -72.7413   29.8028  -75.8692 O.2       10 UNK        -0.4839 
     25 CA        -72.0254   28.3825  -74.0653 C.3       9 UNK         0.0222 
     26 CB        -72.9783   27.7549  -73.0216 C.3       9 UNK        -0.1966 
     27 N         -71.7475   27.4384  -75.1480 N.am      9 UNK        -0.4218 
     28 C         -70.9292   26.3833  -75.0601 C.2       9 UNK         0.5020 
     29 O         -70.3044   26.0984  -74.0357 O.2       9 UNK        -0.5274 
     30 CA        -70.7729   25.5026  -76.3125 C.3       8 UNK         0.0270 
     31 CB        -70.1425   24.1274  -76.0002 C.3       8 UNK        -0.1976 
     32 N         -72.0451   25.3193  -77.0181 N.am      8 UNK        -0.4313 
     33 C         -72.1432   25.0416  -78.3276 C.2       8 UNK         0.5041 
     34 O         -71.1684   24.9726  -79.0787 O.2       8 UNK        -0.5577 
     35 CA        -73.5413   24.7746  -78.9229 C.3       7 UNK         0.0284 
     36 CB        -73.7927   23.2612  -79.0247 C.3       7 UNK        -0.1958 
     37 N         -74.6442   25.3932  -78.1872 N.am      7 UNK        -0.4454 
     38 C         -74.8161   26.7121  -78.0296 C.2       7 UNK         0.5089 
     39 O         -74.1142   27.5617  -78.5785 O.2       7 UNK        -0.5125 
     40 CA        -75.9349   27.1681  -77.0764 C.3       6 UNK         0.0408 
     41 CB        -77.1931   27.5519  -77.8700 C.3       6 UNK        -0.1791 
     42 N         -76.3084   26.2073  -76.0323 N.am      6 UNK        -0.4762 
     43 C         -75.4882   25.6440  -75.1324 C.2       6 UNK         0.5007 
     44 O         -74.2616   25.7162  -75.1768 O.2       6 UNK        -0.5032 
     45 CA        -76.1589   24.8442  -74.0044 C.3       5 UNK         0.0783 
     46 C46       -77.0900   25.7597  -73.1723 C.3       11 UNK        -0.0857 
     47 S47       -77.6585   25.0120  -71.6096 S.3       11 UNK        -0.2512 
     48 C48       -76.8734   26.0848  -70.3556 C.3       11 UNK         0.0225 
     49 N         -76.8538   23.6986  -74.5885 N.am      5 UNK        -0.4615 
     50 C         -76.2450   22.5740  -74.9890 C.2       4 UNK         0.5053 
     51 O         -75.0587   22.3247  -74.7754 O.2       4 UNK        -0.5105 
     52 CA        -77.0910   21.5532  -75.7722 C.3       4 UNK         0.0263 
     53 CB        -77.6456   20.4782  -74.8237 C.3       4 UNK        -0.1981 
     54 N         -78.1998   22.1582  -76.5144 N.am      4 UNK        -0.4224 
     55 C         -78.0684   22.9964  -77.5538 C.2       3 UNK         0.4895 
     56 O         -76.9879   23.3240  -78.0439 O.2       3 UNK        -0.5091 
     57 CA        -79.3698   23.6202  -78.0932 C.3       3 UNK         0.0250 
     58 CB        -80.0286   22.6942  -79.1278 C.3       3 UNK        -0.1996 
     59 N         -80.3326   23.9438  -77.0302 N.am      3 UNK        -0.4254 
     60 C         -80.0795   24.8128  -76.0424 C.2       2 UNK         0.5004 
     61 O         -79.0282   25.4497  -75.9582 O.2       2 UNK        -0.5226 
     62 CA        -81.1230   24.9391  -74.9289 C.3       2 UNK         0.0269 
     63 CB        -81.0445   23.7270  -73.9790 C.3       2 UNK        -0.1926 
     64 N         -80.8503   26.1697  -74.1916 N.am      2 UNK        -0.4687 
     65 C         -81.6744   26.7970  -73.3497 C.2       1 UNK         0.5165 
     66 O         -82.8107   26.3933  -73.0923 O.2       1 UNK        -0.5079 
     67 H67       -78.8817   30.9420  -75.3413 H         1 UNK         0.0900 
     68 H68       -80.6423   31.0654  -75.3908 H         1 UNK         0.0900 
     69 H69       -79.7959   30.0314  -76.5464 H         1 UNK         0.0900 
     70 H70       -81.6382   29.8608  -73.7744 H         1 UNK         0.2959 
     71 H71       -80.1761   27.8612  -72.2814 H         1 UNK         0.1079 
     72 H72       -83.0822   28.7390  -71.9197 H         1 UNK         0.0837 
     73 H73       -82.1212   27.8439  -70.7748 H         1 UNK         0.0837 
     74 H74       -80.8514   28.8395  -68.9323 H         1 UNK         0.0685 
     75 H75       -80.2460   30.4721  -68.8156 H         1 UNK         0.0685 
     76 H76       -79.2154   27.1709  -69.4518 H         1 UNK         0.1434 
     77 H77       -75.5776   28.2095  -71.4707 H         1 UNK         0.1329 
     78 H78       -78.5964   31.1813  -70.8498 H         1 UNK         0.1335 
     79 H79       -75.1361   30.8049  -71.6089 H         1 UNK         0.0680 
     80 H80       -76.5386   31.8139  -71.9100 H         1 UNK         0.0680 
     81 H81       -75.0720   31.4496  -75.6118 H         1 UNK         0.1032 
     82 H82       -75.6825   32.6174  -74.4992 H         1 UNK         0.1032 
     83 H83       -73.0932   32.3308  -74.8530 H         1 UNK         0.0461 
     84 H84       -71.9112   31.9853  -71.9987 H         1 UNK         0.3453 
     85 H85       -72.4950   33.4283  -71.2200 H         1 UNK         0.3453 
     86 H86       -72.8362   30.3952  -72.7717 H         1 UNK         0.2984 
     87 H87       -71.0804   28.6385  -73.5818 H         1 UNK         0.0554 
     88 H88       -72.6596   26.7559  -72.7249 H         1 UNK         0.0847 
     89 H89       -73.9954   27.6778  -73.4067 H         1 UNK         0.0847 
     90 H90       -73.0220   28.3542  -72.1122 H         1 UNK         0.0847 
     91 H91       -72.1995   27.6611  -76.0269 H         1 UNK         0.3141 
     92 H92       -70.0879   26.0473  -76.9657 H         1 UNK         0.0743 
     93 H93       -69.1731   24.2380  -75.5127 H         1 UNK         0.0784 
     94 H94       -69.9764   23.5465  -76.9073 H         1 UNK         0.0784 
     95 H95       -70.7790   23.5395  -75.3379 H         1 UNK         0.0784 
     96 H96       -72.8881   25.3862  -76.4473 H         1 UNK         0.3213 
     97 H97       -73.5455   25.1902  -79.9327 H         1 UNK         0.0855 
     98 H98       -73.8668   22.7985  -78.0394 H         1 UNK         0.0814 
     99 H99       -72.9837   22.7632  -79.5610 H         1 UNK         0.0814 
    100 H100      -74.7151   23.0484  -79.5651 H         1 UNK         0.0814 
    101 H101      -75.3083   24.7684  -77.7446 H         1 UNK         0.3105 
    102 H102      -75.5720   28.0614  -76.5635 H         1 UNK         0.0547 
    103 H103      -77.9550   27.9803  -77.2181 H         1 UNK         0.0837 
    104 H104      -76.9650   28.2951  -78.6350 H         1 UNK         0.0837 
    105 H105      -77.6298   26.6866  -78.3700 H         1 UNK         0.0837 
    106 H106      -77.3088   26.0316  -75.9393 H         1 UNK         0.3020 
    107 H107      -75.3641   24.4826  -73.3474 H         1 UNK         0.1245 
    108 H108      -77.9760   26.0396  -73.7382 H         1 UNK         0.0781 
    109 H109      -76.5826   26.6987  -72.9622 H         1 UNK         0.0781 
    110 H110      -77.1010   25.6926  -69.3634 H         1 UNK         0.0836 
    111 H111      -75.7890   26.0263  -70.4628 H         1 UNK         0.0836 
    112 H112      -77.8165   23.8533  -74.8506 H         1 UNK         0.3022 
    113 H113      -76.4313   21.0682  -76.4950 H         1 UNK         0.0747 
    114 H114      -78.1798   19.7016  -75.3714 H         1 UNK         0.0793 
    115 H115      -76.8392   19.9886  -74.2757 H         1 UNK         0.0793 
    116 H116      -78.3289   20.9025  -74.0867 H         1 UNK         0.0793 
    117 H117      -79.1316   21.9469  -76.1893 H         1 UNK         0.3047 
    118 H118      -79.1007   24.5534  -78.5928 H         1 UNK         0.0822 
    119 H119      -80.9005   23.1647  -79.5828 H         1 UNK         0.0807 
    120 H120      -80.3485   21.7506  -78.6840 H         1 UNK         0.0807 
    121 H121      -79.3339   22.4559  -79.9346 H         1 UNK         0.0807 
    122 H122      -81.2139   23.4499  -77.0432 H         1 UNK         0.2946 
    123 H123      -82.1153   25.0033  -75.3808 H         1 UNK         0.1144 
    124 H124      -81.7931   23.7893  -73.1892 H         1 UNK         0.0793 
    125 H125      -80.0659   23.6530  -73.5023 H         1 UNK         0.0793 
    126 H126      -81.2226   22.7922  -74.5115 H         1 UNK         0.0793 
    127 H127      -79.9655   26.6182  -74.4271 H         1 UNK         0.2896 
@<TRIPOS>BOND
     1    1    2 1    
     2    1   67 1    
     3    1   68 1    
     4    1   69 1    
     5    2    3 2    
     6    2    4 am   BACKBONE|DICT|INTERRES
     7    4    5 1    
     8    4   70 1    
     9    5    6 1    
    10    5   65 1    
    11    5   71 1    
    12    6    7 1    
    13    6   72 1    
    14    6   73 1    
    15    7    8 1    
    16    8    9 1    
    17    8   74 1    
    18    8   75 1    
    19    9   10 ar   
    20    9   14 ar   
    21   10   11 ar   
    22   10   76 1    
    23   11   12 ar   
    24   11   48 1    
    25   12   13 ar   
    26   12   77 1    
    27   13   14 ar   
    28   13   15 1    
    29   14   78 1    
    30   15   16 1    
    31   15   79 1    
    32   15   80 1    
    33   16   17 1    
    34   17   18 1    
    35   17   81 1    
    36   17   82 1    
    37   18   19 1    
    38   18   22 1    
    39   18   83 1    
    40   19   20 am   BACKBONE|DICT|INTERRES
    41   19   21 2    
    42   20   84 1    
    43   20   85 1    
    44   22   23 am   BACKBONE|DICT|INTERRES
    45   22   86 1    
    46   23   24 2    
    47   23   25 1    
    48   25   26 1    
    49   25   27 1    
    50   25   87 1    
    51   26   88 1    
    52   26   89 1    
    53   26   90 1    
    54   27   28 am   BACKBONE|DICT|INTERRES
    55   27   91 1    
    56   28   29 2    
    57   28   30 1    
    58   30   31 1    
    59   30   32 1    
    60   30   92 1    
    61   31   93 1    
    62   31   94 1    
    63   31   95 1    
    64   32   33 am   BACKBONE|DICT|INTERRES
    65   32   96 1    
    66   33   34 2    
    67   33   35 1    
    68   35   36 1    
    69   35   37 1    
    70   35   97 1    
    71   36   98 1    
    72   36   99 1    
    73   36  100 1    
    74   37   38 am   BACKBONE|DICT|INTERRES
    75   37  101 1    
    76   38   39 2    
    77   38   40 1    
    78   40   41 1    
    79   40   42 1    
    80   40  102 1    
    81   41  103 1    
    82   41  104 1    
    83   41  105 1    
    84   42   43 am   BACKBONE|DICT|INTERRES
    85   42  106 1    
    86   43   44 2    
    87   43   45 1    
    88   45   46 1    
    89   45   49 1    
    90   45  107 1    
    91   46   47 1    
    92   46  108 1    
    93   46  109 1    
    94   47   48 1    
    95   48  110 1    
    96   48  111 1    
    97   49   50 am   BACKBONE|DICT|INTERRES
    98   49  112 1    
    99   50   51 2    
   100   50   52 1    
   101   52   53 1    
   102   52   54 1    
   103   52  113 1    
   104   53  114 1    
   105   53  115 1    
   106   53  116 1    
   107   54   55 am   BACKBONE|DICT|INTERRES
   108   54  117 1    
   109   55   56 2    
   110   55   57 1    
   111   57   58 1    
   112   57   59 1    
   113   57  118 1    
   114   58  119 1    
   115   58  120 1    
   116   58  121 1    
   117   59   60 am   BACKBONE|DICT|INTERRES
   118   59  122 1    
   119   60   61 2    
   120   60   62 1    
   121   62   63 1    
   122   62   64 1    
   123   62  123 1    
   124   63  124 1    
   125   63  125 1    
   126   63  126 1    
   127   64   65 am   BACKBONE|DICT|INTERRES
   128   64  127 1    
   129   65   66 2    
@<TRIPOS>SUBSTRUCTURE
     1 UNK         1 GROUP             0       ****    0 ROOT    
