@<TRIPOS>MOLECULE
3R135
127   129    1
SMALL
USER_CHARGES


@<TRIPOS>ATOM
      1 CA        -85.1480   27.0381  -73.1058 C.3       0 UNK        -0.1998 
      2 C         -83.7642   26.4681  -72.8326 C.2       0 UNK         0.4909 
      3 O         -83.6559   25.3287  -72.3789 O.2       0 UNK        -0.5240 
      4 N         -82.7140   27.2553  -73.1120 N.am      1 UNK        -0.4739 
      5 CA        -81.2912   26.9224  -72.9172 C.3       1 UNK         0.0864 
      6 C6        -80.8907   26.7289  -71.4263 C.3       11 UNK        -0.0881 
      7 S7        -81.3805   28.1342  -70.3657 S.3       11 UNK        -0.2682 
      8 C8        -79.7845   28.6552  -69.6443 C.3       11 UNK         0.0289 
      9 C9        -78.8359   29.4218  -70.5701 C.ar      11 UNK        -0.0687 
     10 C10       -79.2283   29.9455  -71.8094 C.ar      11 UNK        -0.0823 
     11 C11       -78.3279   30.6650  -72.6019 C.ar      11 UNK        -0.0830 
     12 C12       -77.0234   30.8726  -72.1435 C.ar      11 UNK        -0.1021 
     13 C13       -76.6173   30.3698  -70.9040 C.ar      11 UNK        -0.0753 
     14 C14       -77.5293   29.6480  -70.1273 C.ar      11 UNK        -0.0933 
     15 C15       -75.2124   30.6587  -70.3850 C.3       11 UNK         0.0166 
     16 S16       -74.3437   29.1767  -69.7736 S.3       11 UNK        -0.2615 
     17 C17       -74.0246   28.2761  -71.3268 C.3       11 UNK        -0.0865 
     18 CA        -72.6537   28.6268  -71.9685 C.3       10 UNK         0.0862 
     19 C         -71.4620   27.8650  -71.3069 C.2       10 UNK         0.5551 
     20 N         -70.6539   27.1062  -72.0385 N.am      10 UNK        -0.7319 
     21 O         -71.2491   27.9747  -70.1024 O.2       10 UNK        -0.5018 
     22 N         -72.7278   28.4847  -73.4289 N.am      10 UNK        -0.4509 
     23 C         -71.9499   29.1256  -74.3087 C.2       10 UNK         0.4899 
     24 O         -71.1324   29.9922  -73.9937 O.2       10 UNK        -0.4839 
     25 CA        -72.1091   28.7114  -75.7865 C.3       9 UNK         0.0222 
     26 CB        -70.9617   29.2284  -76.6799 C.3       9 UNK        -0.1966 
     27 N         -72.2885   27.2635  -75.9729 N.am      9 UNK        -0.4218 
     28 C         -71.4622   26.2881  -75.5609 C.2       9 UNK         0.5020 
     29 O         -70.4268   26.4915  -74.9254 O.2       9 UNK        -0.5274 
     30 CA        -71.8495   24.8336  -75.8818 C.3       8 UNK         0.0270 
     31 CB        -72.3129   24.1064  -74.6105 C.3       8 UNK        -0.1976 
     32 N         -72.8707   24.7060  -76.9281 N.am      8 UNK        -0.4313 
     33 C         -72.6030   24.8203  -78.2368 C.2       8 UNK         0.5041 
     34 O         -71.4913   25.1046  -78.6844 O.2       8 UNK        -0.5577 
     35 CA        -73.7575   24.5756  -79.2134 C.3       7 UNK         0.0284 
     36 CB        -74.1117   23.0794  -79.2879 C.3       7 UNK        -0.1958 
     37 N         -74.9439   25.3513  -78.8440 N.am      7 UNK        -0.4454 
     38 C         -75.4154   26.3798  -79.5611 C.2       7 UNK         0.5089 
     39 O         -74.8678   26.8209  -80.5725 O.2       7 UNK        -0.5125 
     40 CA        -76.7396   27.0138  -79.1086 C.3       6 UNK         0.0408 
     41 CB        -77.9300   26.2524  -79.7133 C.3       6 UNK        -0.1791 
     42 N         -76.9119   27.1068  -77.6585 N.am      6 UNK        -0.4762 
     43 C         -76.2571   27.9715  -76.8705 C.2       6 UNK         0.5007 
     44 O         -75.3076   28.6557  -77.2499 O.2       6 UNK        -0.5032 
     45 CA        -76.7613   28.0999  -75.4204 C.3       5 UNK         0.0783 
     46 C46       -78.0943   28.8868  -75.3436 C.3       11 UNK        -0.0857 
     47 S47       -77.8078   30.6880  -75.3576 S.3       11 UNK        -0.2512 
     48 C48       -78.7877   31.2584  -73.9295 C.3       11 UNK         0.0225 
     49 N         -76.8871   26.7789  -74.8138 N.am      5 UNK        -0.4615 
     50 C         -75.8947   26.1503  -74.1747 C.2       4 UNK         0.5053 
     51 O         -74.7813   26.6382  -73.9897 O.2       4 UNK        -0.5105 
     52 CA        -76.1815   24.7174  -73.6972 C.3       4 UNK         0.0263 
     53 CB        -76.8067   24.7348  -72.2939 C.3       4 UNK        -0.1981 
     54 N         -77.0350   23.9778  -74.6320 N.am      4 UNK        -0.4224 
     55 C         -76.6766   23.6926  -75.8941 C.2       3 UNK         0.4895 
     56 O         -75.5765   23.9798  -76.3692 O.2       3 UNK        -0.5091 
     57 CA        -77.7197   23.0254  -76.8068 C.3       3 UNK         0.0250 
     58 CB        -77.5178   21.5026  -76.8202 C.3       3 UNK        -0.1996 
     59 N         -79.1151   23.3309  -76.4728 N.am      3 UNK        -0.4254 
     60 C         -79.6580   24.5561  -76.4208 C.2       2 UNK         0.5004 
     61 O         -79.0206   25.5928  -76.6195 O.2       2 UNK        -0.5226 
     62 CA        -81.1533   24.6616  -76.0626 C.3       2 UNK         0.0269 
     63 CB        -81.8058   23.3229  -75.6462 C.3       2 UNK        -0.1926 
     64 N         -81.3944   25.6828  -75.0359 N.am      2 UNK        -0.4687 
     65 C         -80.8420   25.7438  -73.8128 C.2       1 UNK         0.5165 
     66 O         -80.0225   24.9236  -73.3943 O.2       1 UNK        -0.5079 
     67 H67       -85.6754   26.4137  -73.8265 H         1 UNK         0.0900 
     68 H68       -85.7307   27.0629  -72.1854 H         1 UNK         0.0900 
     69 H69       -85.1018   28.0514  -73.5044 H         1 UNK         0.0900 
     70 H70       -82.8892   28.1817  -73.4760 H         1 UNK         0.2959 
     71 H71       -80.7315   27.7800  -73.2907 H         1 UNK         0.1079 
     72 H72       -81.3468   25.8240  -71.0214 H         1 UNK         0.0837 
     73 H73       -79.8120   26.5831  -71.3433 H         1 UNK         0.0837 
     74 H74       -80.0011   29.2919  -68.7856 H         1 UNK         0.0685 
     75 H75       -79.2770   27.7736  -69.2492 H         1 UNK         0.0685 
     76 H76       -80.2427   29.8186  -72.1563 H         1 UNK         0.1434 
     77 H77       -76.3317   31.4439  -72.7478 H         1 UNK         0.1329 
     78 H78       -77.2213   29.2712  -69.1613 H         1 UNK         0.1335 
     79 H79       -74.6009   31.1312  -71.1555 H         1 UNK         0.0680 
     80 H80       -75.2878   31.3781  -69.5686 H         1 UNK         0.0680 
     81 H81       -74.1061   27.2031  -71.1433 H         1 UNK         0.1032 
     82 H82       -74.8387   28.5094  -72.0149 H         1 UNK         0.1032 
     83 H83       -72.4652   29.6846  -71.7753 H         1 UNK         0.0461 
     84 H84       -70.7657   27.0258  -73.0434 H         1 UNK         0.3453 
     85 H85       -69.8887   26.6330  -71.5857 H         1 UNK         0.3453 
     86 H86       -73.3758   27.7746  -73.7660 H         1 UNK         0.2984 
     87 H87       -73.0281   29.1851  -76.1296 H         1 UNK         0.0554 
     88 H88       -70.8963   30.3165  -76.6446 H         1 UNK         0.0847 
     89 H89       -71.1146   28.9485  -77.7222 H         1 UNK         0.0847 
     90 H90       -69.9952   28.8335  -76.3649 H         1 UNK         0.0847 
     91 H91       -73.1334   26.9856  -76.4517 H         1 UNK         0.3141 
     92 H92       -70.9447   24.3317  -76.2319 H         1 UNK         0.0743 
     93 H93       -73.1092   24.6493  -74.1078 H         1 UNK         0.0784 
     94 H94       -72.6681   23.0986  -74.8264 H         1 UNK         0.0784 
     95 H95       -71.4922   24.0169  -73.8976 H         1 UNK         0.0784 
     96 H96       -73.8119   24.4454  -76.6369 H         1 UNK         0.3213 
     97 H97       -73.4041   24.8687  -80.2045 H         1 UNK         0.0855 
     98 H98       -74.4449   22.6825  -78.3293 H         1 UNK         0.0814 
     99 H99       -73.2462   22.4918  -79.5970 H         1 UNK         0.0814 
    100 H100      -74.9020   22.8974  -80.0161 H         1 UNK         0.0814 
    101 H101      -75.4280   25.0671  -77.9987 H         1 UNK         0.3105 
    102 H102      -76.7639   28.0307  -79.5067 H         1 UNK         0.0547 
    103 H103      -77.8535   26.2066  -80.8005 H         1 UNK         0.0837 
    104 H104      -77.9837   25.2272  -79.3471 H         1 UNK         0.0837 
    105 H105      -78.8752   26.7410  -79.4761 H         1 UNK         0.0837 
    106 H106      -77.6808   26.5678  -77.2600 H         1 UNK         0.3020 
    107 H107      -76.0062   28.6595  -74.8617 H         1 UNK         0.1245 
    108 H108      -78.6196   28.6285  -74.4240 H         1 UNK         0.0781 
    109 H109      -78.7783   28.6201  -76.1520 H         1 UNK         0.0781 
    110 H110      -79.8389   31.0328  -74.1163 H         1 UNK         0.0836 
    111 H111      -78.7173   32.3453  -73.8698 H         1 UNK         0.0836 
    112 H112      -77.7453   26.2751  -74.9999 H         1 UNK         0.3022 
    113 H113      -75.2346   24.1818  -73.6315 H         1 UNK         0.0747 
    114 H114      -77.0341   23.7278  -71.9443 H         1 UNK         0.0793 
    115 H115      -76.1214   25.1819  -71.5725 H         1 UNK         0.0793 
    116 H116      -77.7264   25.3183  -72.2648 H         1 UNK         0.0793 
    117 H117      -77.9709   23.7512  -74.3220 H         1 UNK         0.3047 
    118 H118      -77.5406   23.3972  -77.8171 H         1 UNK         0.0822 
    119 H119      -78.1712   21.0210  -77.5479 H         1 UNK         0.0807 
    120 H120      -77.7166   21.0597  -75.8434 H         1 UNK         0.0807 
    121 H121      -76.4922   21.2468  -77.0914 H         1 UNK         0.0807 
    122 H122      -79.7120   22.5412  -76.2736 H         1 UNK         0.2946 
    123 H123      -81.6514   25.0072  -76.9699 H         1 UNK         0.1144 
    124 H124      -82.8605   23.4630  -75.4081 H         1 UNK         0.0793 
    125 H125      -81.3295   22.8890  -74.7659 H         1 UNK         0.0793 
    126 H126      -81.7610   22.5881  -76.4511 H         1 UNK         0.0793 
    127 H127      -82.0408   26.4157  -75.2920 H         1 UNK         0.2896 
@<TRIPOS>BOND
     1    1    2 1    
     2    1   67 1    
     3    1   68 1    
     4    1   69 1    
     5    2    3 2    
     6    2    4 am   BACKBONE|DICT|INTERRES
     7    4    5 1    
     8    4   70 1    
     9    5    6 1    
    10    5   65 1    
    11    5   71 1    
    12    6    7 1    
    13    6   72 1    
    14    6   73 1    
    15    7    8 1    
    16    8    9 1    
    17    8   74 1    
    18    8   75 1    
    19    9   10 ar   
    20    9   14 ar   
    21   10   11 ar   
    22   10   76 1    
    23   11   12 ar   
    24   11   48 1    
    25   12   13 ar   
    26   12   77 1    
    27   13   14 ar   
    28   13   15 1    
    29   14   78 1    
    30   15   16 1    
    31   15   79 1    
    32   15   80 1    
    33   16   17 1    
    34   17   18 1    
    35   17   81 1    
    36   17   82 1    
    37   18   19 1    
    38   18   22 1    
    39   18   83 1    
    40   19   20 am   BACKBONE|DICT|INTERRES
    41   19   21 2    
    42   20   84 1    
    43   20   85 1    
    44   22   23 am   BACKBONE|DICT|INTERRES
    45   22   86 1    
    46   23   24 2    
    47   23   25 1    
    48   25   26 1    
    49   25   27 1    
    50   25   87 1    
    51   26   88 1    
    52   26   89 1    
    53   26   90 1    
    54   27   28 am   BACKBONE|DICT|INTERRES
    55   27   91 1    
    56   28   29 2    
    57   28   30 1    
    58   30   31 1    
    59   30   32 1    
    60   30   92 1    
    61   31   93 1    
    62   31   94 1    
    63   31   95 1    
    64   32   33 am   BACKBONE|DICT|INTERRES
    65   32   96 1    
    66   33   34 2    
    67   33   35 1    
    68   35   36 1    
    69   35   37 1    
    70   35   97 1    
    71   36   98 1    
    72   36   99 1    
    73   36  100 1    
    74   37   38 am   BACKBONE|DICT|INTERRES
    75   37  101 1    
    76   38   39 2    
    77   38   40 1    
    78   40   41 1    
    79   40   42 1    
    80   40  102 1    
    81   41  103 1    
    82   41  104 1    
    83   41  105 1    
    84   42   43 am   BACKBONE|DICT|INTERRES
    85   42  106 1    
    86   43   44 2    
    87   43   45 1    
    88   45   46 1    
    89   45   49 1    
    90   45  107 1    
    91   46   47 1    
    92   46  108 1    
    93   46  109 1    
    94   47   48 1    
    95   48  110 1    
    96   48  111 1    
    97   49   50 am   BACKBONE|DICT|INTERRES
    98   49  112 1    
    99   50   51 2    
   100   50   52 1    
   101   52   53 1    
   102   52   54 1    
   103   52  113 1    
   104   53  114 1    
   105   53  115 1    
   106   53  116 1    
   107   54   55 am   BACKBONE|DICT|INTERRES
   108   54  117 1    
   109   55   56 2    
   110   55   57 1    
   111   57   58 1    
   112   57   59 1    
   113   57  118 1    
   114   58  119 1    
   115   58  120 1    
   116   58  121 1    
   117   59   60 am   BACKBONE|DICT|INTERRES
   118   59  122 1    
   119   60   61 2    
   120   60   62 1    
   121   62   63 1    
   122   62   64 1    
   123   62  123 1    
   124   63  124 1    
   125   63  125 1    
   126   63  126 1    
   127   64   65 am   BACKBONE|DICT|INTERRES
   128   64  127 1    
   129   65   66 2    
@<TRIPOS>SUBSTRUCTURE
     1 UNK         1 GROUP             0       ****    0 ROOT    
