@<TRIPOS>MOLECULE
3R135
127   129    1
SMALL
USER_CHARGES


@<TRIPOS>ATOM
      1 CA        -80.9882   29.5973  -76.4544 C.3       0 UNK        -0.1998 
      2 C         -80.6172   28.6664  -75.3107 C.2       0 UNK         0.4909 
      3 O         -79.6187   27.9544  -75.4009 O.2       0 UNK        -0.5240 
      4 N         -81.4164   28.6557  -74.2369 N.am      1 UNK        -0.4739 
      5 CA        -81.2086   27.8319  -73.0396 C.3       1 UNK         0.0864 
      6 C6        -81.7588   28.5146  -71.7582 C.3       11 UNK        -0.0881 
      7 S7        -81.0913   30.1941  -71.4841 S.3       11 UNK        -0.2682 
      8 C8        -79.8646   29.9306  -70.1629 C.3       11 UNK         0.0289 
      9 C9        -78.5621   29.3565  -70.7012 C.ar      11 UNK        -0.0687 
     10 C10       -78.2641   28.0001  -70.5401 C.ar      11 UNK        -0.0823 
     11 C11       -77.0698   27.4739  -71.0425 C.ar      11 UNK        -0.0830 
     12 C12       -76.1606   28.3174  -71.6897 C.ar      11 UNK        -0.1021 
     13 C13       -76.4490   29.6733  -71.8588 C.ar      11 UNK        -0.0753 
     14 C14       -77.6495   30.1882  -71.3591 C.ar      11 UNK        -0.0933 
     15 C15       -75.4758   30.5747  -72.6030 C.3       11 UNK         0.0166 
     16 S16       -74.2703   31.3185  -71.4651 S.3       11 UNK        -0.2615 
     17 C17       -73.4592   32.5435  -72.5559 C.3       11 UNK        -0.0865 
     18 CA        -71.8998   32.5410  -72.5828 C.3       10 UNK         0.0862 
     19 C         -71.2190   32.6010  -71.1796 C.2       10 UNK         0.5551 
     20 N         -70.1097   31.9105  -70.9473 N.am      10 UNK        -0.7319 
     21 O         -71.6715   33.3339  -70.3030 O.2       10 UNK        -0.5018 
     22 N         -71.3183   31.6074  -73.5672 N.am      10 UNK        -0.4509 
     23 C         -71.2366   30.2728  -73.5033 C.2       10 UNK         0.4899 
     24 O         -71.6737   29.5823  -72.5818 O.2       10 UNK        -0.4839 
     25 CA        -70.4473   29.6120  -74.6463 C.3       9 UNK         0.0222 
     26 CB        -68.9357   29.7020  -74.3728 C.3       9 UNK        -0.1966 
     27 N         -70.8131   28.2041  -74.8003 N.am      9 UNK        -0.4218 
     28 C         -71.8484   27.7614  -75.5218 C.2       9 UNK         0.5020 
     29 O         -72.5734   28.4903  -76.2044 O.2       9 UNK        -0.5274 
     30 CA        -72.1137   26.2496  -75.4437 C.3       8 UNK         0.0270 
     31 CB        -72.7918   25.8884  -74.1091 C.3       8 UNK        -0.1976 
     32 N         -72.9709   25.8149  -76.5482 N.am      8 UNK        -0.4313 
     33 C         -72.5276   25.3034  -77.7055 C.2       8 UNK         0.5041 
     34 O         -71.3316   25.1352  -77.9525 O.2       8 UNK        -0.5577 
     35 CA        -73.5625   24.8843  -78.7702 C.3       7 UNK         0.0284 
     36 CB        -73.4600   23.3767  -79.0624 C.3       7 UNK        -0.1958 
     37 N         -74.9385   25.1863  -78.3740 N.am      7 UNK        -0.4454 
     38 C         -75.6390   26.2574  -78.7736 C.2       7 UNK         0.5089 
     39 O         -75.2262   27.0758  -79.5960 O.2       7 UNK        -0.5125 
     40 CA        -77.0304   26.4724  -78.1403 C.3       6 UNK         0.0408 
     41 CB        -78.1406   26.0289  -79.1051 C.3       6 UNK        -0.1791 
     42 N         -77.2177   25.7957  -76.8535 N.am      6 UNK        -0.4762 
     43 C         -76.4800   26.0130  -75.7558 C.2       6 UNK         0.5007 
     44 O         -75.5746   26.8428  -75.7030 O.2       6 UNK        -0.5032 
     45 CA        -76.7428   25.1154  -74.5329 C.3       5 UNK         0.0783 
     46 C46       -77.7657   25.7924  -73.6036 C.3       11 UNK        -0.0857 
     47 S47       -77.9107   24.9876  -71.9728 S.3       11 UNK        -0.2512 
     48 C48       -76.7816   25.9827  -70.9400 C.3       11 UNK         0.0225 
     49 N         -77.1547   23.7584  -74.9068 N.am      5 UNK        -0.4615 
     50 C         -76.4052   22.8814  -75.5874 C.2       4 UNK         0.5053 
     51 O         -75.2667   23.1213  -75.9884 O.2       4 UNK        -0.5105 
     52 CA        -77.0521   21.5209  -75.8943 C.3       4 UNK         0.0263 
     53 CB        -76.9631   20.5912  -74.6734 C.3       4 UNK        -0.1981 
     54 N         -78.4516   21.6601  -76.3070 N.am      4 UNK        -0.4224 
     55 C         -78.8398   22.1194  -77.5059 C.2       3 UNK         0.4895 
     56 O         -78.0616   22.3874  -78.4212 O.2       3 UNK        -0.5091 
     57 CA        -80.3506   22.3431  -77.7121 C.3       3 UNK         0.0250 
     58 CB        -81.0243   21.0544  -78.2106 C.3       3 UNK        -0.1996 
     59 N         -81.0500   22.8336  -76.5162 N.am      3 UNK        -0.4254 
     60 C         -80.7768   23.9948  -75.9054 C.2       2 UNK         0.5004 
     61 O         -79.8955   24.7685  -76.2869 O.2       2 UNK        -0.5226 
     62 CA        -81.5797   24.3236  -74.6375 C.3       2 UNK         0.0269 
     63 CB        -81.2133   23.3401  -73.5042 C.3       2 UNK        -0.1926 
     64 N         -81.2699   25.7001  -74.2504 N.am      2 UNK        -0.4687 
     65 C         -81.7999   26.4185  -73.2552 C.2       1 UNK         0.5165 
     66 O         -82.7263   26.0173  -72.5480 O.2       1 UNK        -0.5079 
     67 H67       -81.8981   30.1592  -76.2445 H         1 UNK         0.0900 
     68 H68       -81.1449   29.0235  -77.3674 H         1 UNK         0.0900 
     69 H69       -80.1825   30.3088  -76.6329 H         1 UNK         0.0900 
     70 H70       -82.2317   29.2516  -74.2167 H         1 UNK         0.2959 
     71 H71       -80.1343   27.6992  -72.8895 H         1 UNK         0.1079 
     72 H72       -81.5517   27.8980  -70.8816 H         1 UNK         0.0837 
     73 H73       -82.8457   28.6015  -71.8121 H         1 UNK         0.0837 
     74 H74       -79.6595   30.8891  -69.6839 H         1 UNK         0.0685 
     75 H75       -80.2849   29.2904  -69.3857 H         1 UNK         0.0685 
     76 H76       -78.9698   27.3466  -70.0455 H         1 UNK         0.1434 
     77 H77       -75.2381   27.9165  -72.0879 H         1 UNK         0.1329 
     78 H78       -77.8790   31.2371  -71.4890 H         1 UNK         0.1335 
     79 H79       -74.9451   30.0091  -73.3712 H         1 UNK         0.0680 
     80 H80       -76.0252   31.3630  -73.1202 H         1 UNK         0.0680 
     81 H81       -73.8030   33.5254  -72.2260 H         1 UNK         0.1032 
     82 H82       -73.8392   32.4406  -73.5732 H         1 UNK         0.1032 
     83 H83       -71.6301   33.5083  -73.0088 H         1 UNK         0.0461 
     84 H84       -69.7341   31.3006  -71.6545 H         1 UNK         0.3453 
     85 H85       -69.6678   31.9733  -70.0437 H         1 UNK         0.3453 
     86 H86       -70.8843   32.0598  -74.3594 H         1 UNK         0.2984 
     87 H87       -70.6627   30.1438  -75.5759 H         1 UNK         0.0554 
     88 H88       -68.3595   29.2484  -75.1797 H         1 UNK         0.0847 
     89 H89       -68.6609   29.2013  -73.4433 H         1 UNK         0.0847 
     90 H90       -68.6096   30.7398  -74.2920 H         1 UNK         0.0847 
     91 H91       -70.3083   27.5460  -74.2241 H         1 UNK         0.3141 
     92 H92       -71.1570   25.7251  -75.4936 H         1 UNK         0.0743 
     93 H93       -73.6824   26.4910  -73.9293 H         1 UNK         0.0784 
     94 H94       -73.0831   24.8380  -74.0813 H         1 UNK         0.0784 
     95 H95       -72.1175   26.0593  -73.2692 H         1 UNK         0.0784 
     96 H96       -73.9543   26.0502  -76.4529 H         1 UNK         0.3213 
     97 H97       -73.3122   25.4217  -79.6874 H         1 UNK         0.0855 
     98 H98       -73.6557   22.7786  -78.1717 H         1 UNK         0.0814 
     99 H99       -72.4633   23.1131  -79.4188 H         1 UNK         0.0814 
    100 H100      -74.1688   23.0726  -79.8328 H         1 UNK         0.0814 
    101 H101      -75.3483   24.5692  -77.6819 H         1 UNK         0.3105 
    102 H102      -77.1437   27.5435  -77.9610 H         1 UNK         0.0547 
    103 H103      -78.0646   26.5551  -80.0575 H         1 UNK         0.0837 
    104 H104      -78.0863   24.9607  -79.3167 H         1 UNK         0.0837 
    105 H105      -79.1289   26.2398  -78.6955 H         1 UNK         0.0837 
    106 H106      -78.0129   25.1671  -76.7777 H         1 UNK         0.3020 
    107 H107      -75.7949   25.0320  -73.9970 H         1 UNK         0.1245 
    108 H108      -78.7428   25.7644  -74.0728 H         1 UNK         0.0781 
    109 H109      -77.5488   26.8535  -73.4882 H         1 UNK         0.0781 
    110 H110      -75.7531   25.7655  -71.2323 H         1 UNK         0.0836 
    111 H111      -76.8773   25.6658  -69.9006 H         1 UNK         0.0836 
    112 H112      -78.0866   23.4902  -74.6328 H         1 UNK         0.3022 
    113 H113      -76.4922   21.0621  -76.7124 H         1 UNK         0.0747 
    114 H114      -77.3572   19.6004  -74.9005 H         1 UNK         0.0793 
    115 H115      -75.9265   20.4613  -74.3588 H         1 UNK         0.0793 
    116 H116      -77.5154   20.9849  -73.8190 H         1 UNK         0.0793 
    117 H117      -79.1606   21.4412  -75.6228 H         1 UNK         0.3047 
    118 H118      -80.4587   23.1046  -78.4878 H         1 UNK         0.0822 
    119 H119      -82.0714   21.2251  -78.4616 H         1 UNK         0.0807 
    120 H120      -80.9819   20.2596  -77.4648 H         1 UNK         0.0807 
    121 H121      -80.5346   20.6820  -79.1117 H         1 UNK         0.0807 
    122 H122      -81.7854   22.2467  -76.1482 H         1 UNK         0.2946 
    123 H123      -82.6448   24.2542  -74.8679 H         1 UNK         0.1144 
    124 H124      -81.7834   23.5366  -72.5966 H         1 UNK         0.0793 
    125 H125      -80.1554   23.3967  -73.2481 H         1 UNK         0.0793 
    126 H126      -81.4260   22.3085  -73.7863 H         1 UNK         0.0793 
    127 H127      -80.5600   26.1366  -74.8357 H         1 UNK         0.2896 
@<TRIPOS>BOND
     1    1    2 1    
     2    1   67 1    
     3    1   68 1    
     4    1   69 1    
     5    2    3 2    
     6    2    4 am   BACKBONE|DICT|INTERRES
     7    4    5 1    
     8    4   70 1    
     9    5    6 1    
    10    5   65 1    
    11    5   71 1    
    12    6    7 1    
    13    6   72 1    
    14    6   73 1    
    15    7    8 1    
    16    8    9 1    
    17    8   74 1    
    18    8   75 1    
    19    9   10 ar   
    20    9   14 ar   
    21   10   11 ar   
    22   10   76 1    
    23   11   12 ar   
    24   11   48 1    
    25   12   13 ar   
    26   12   77 1    
    27   13   14 ar   
    28   13   15 1    
    29   14   78 1    
    30   15   16 1    
    31   15   79 1    
    32   15   80 1    
    33   16   17 1    
    34   17   18 1    
    35   17   81 1    
    36   17   82 1    
    37   18   19 1    
    38   18   22 1    
    39   18   83 1    
    40   19   20 am   BACKBONE|DICT|INTERRES
    41   19   21 2    
    42   20   84 1    
    43   20   85 1    
    44   22   23 am   BACKBONE|DICT|INTERRES
    45   22   86 1    
    46   23   24 2    
    47   23   25 1    
    48   25   26 1    
    49   25   27 1    
    50   25   87 1    
    51   26   88 1    
    52   26   89 1    
    53   26   90 1    
    54   27   28 am   BACKBONE|DICT|INTERRES
    55   27   91 1    
    56   28   29 2    
    57   28   30 1    
    58   30   31 1    
    59   30   32 1    
    60   30   92 1    
    61   31   93 1    
    62   31   94 1    
    63   31   95 1    
    64   32   33 am   BACKBONE|DICT|INTERRES
    65   32   96 1    
    66   33   34 2    
    67   33   35 1    
    68   35   36 1    
    69   35   37 1    
    70   35   97 1    
    71   36   98 1    
    72   36   99 1    
    73   36  100 1    
    74   37   38 am   BACKBONE|DICT|INTERRES
    75   37  101 1    
    76   38   39 2    
    77   38   40 1    
    78   40   41 1    
    79   40   42 1    
    80   40  102 1    
    81   41  103 1    
    82   41  104 1    
    83   41  105 1    
    84   42   43 am   BACKBONE|DICT|INTERRES
    85   42  106 1    
    86   43   44 2    
    87   43   45 1    
    88   45   46 1    
    89   45   49 1    
    90   45  107 1    
    91   46   47 1    
    92   46  108 1    
    93   46  109 1    
    94   47   48 1    
    95   48  110 1    
    96   48  111 1    
    97   49   50 am   BACKBONE|DICT|INTERRES
    98   49  112 1    
    99   50   51 2    
   100   50   52 1    
   101   52   53 1    
   102   52   54 1    
   103   52  113 1    
   104   53  114 1    
   105   53  115 1    
   106   53  116 1    
   107   54   55 am   BACKBONE|DICT|INTERRES
   108   54  117 1    
   109   55   56 2    
   110   55   57 1    
   111   57   58 1    
   112   57   59 1    
   113   57  118 1    
   114   58  119 1    
   115   58  120 1    
   116   58  121 1    
   117   59   60 am   BACKBONE|DICT|INTERRES
   118   59  122 1    
   119   60   61 2    
   120   60   62 1    
   121   62   63 1    
   122   62   64 1    
   123   62  123 1    
   124   63  124 1    
   125   63  125 1    
   126   63  126 1    
   127   64   65 am   BACKBONE|DICT|INTERRES
   128   64  127 1    
   129   65   66 2    
@<TRIPOS>SUBSTRUCTURE
     1 UNK         1 GROUP             0       ****    0 ROOT    
