@<TRIPOS>MOLECULE
3R135
127   129    1
SMALL
USER_CHARGES


@<TRIPOS>ATOM
      1 CA        -75.6197   27.1888  -67.6361 C.3       0 UNK        -0.1998 
      2 C         -76.6525   26.4193  -68.4457 C.2       0 UNK         0.4909 
      3 O         -77.1612   25.3994  -67.9782 O.2       0 UNK        -0.5240 
      4 N         -76.9687   26.9023  -69.6520 N.am      1 UNK        -0.4739 
      5 CA        -77.8751   26.2475  -70.6012 C.3       1 UNK         0.0864 
      6 C6        -78.4600   27.2627  -71.6146 C.3       11 UNK        -0.0881 
      7 S7        -79.5571   28.4602  -70.7817 S.3       11 UNK        -0.2682 
      8 C8        -80.8176   28.7875  -72.0641 C.3       11 UNK         0.0289 
      9 C9        -80.2971   29.5241  -73.2989 C.ar      11 UNK        -0.0687 
     10 C10       -80.9108   29.3037  -74.5365 C.ar      11 UNK        -0.0823 
     11 C11       -80.4655   29.9689  -75.6833 C.ar      11 UNK        -0.0830 
     12 C12       -79.3872   30.8534  -75.5917 C.ar      11 UNK        -0.1021 
     13 C13       -78.7546   31.0728  -74.3673 C.ar      11 UNK        -0.0753 
     14 C14       -79.2349   30.4330  -73.2218 C.ar      11 UNK        -0.0933 
     15 C15       -77.5340   31.9785  -74.2886 C.3       11 UNK         0.0166 
     16 S16       -76.0262   31.1011  -74.8200 S.3       11 UNK        -0.2615 
     17 C17       -75.9056   29.7857  -73.5574 C.3       11 UNK        -0.0865 
     18 CA        -74.4745   29.6006  -72.9967 C.3       10 UNK         0.0862 
     19 C         -74.4858   28.6550  -71.7567 C.2       10 UNK         0.5551 
     20 N         -73.7318   27.5636  -71.7258 N.am      10 UNK        -0.7319 
     21 O         -75.2063   28.9187  -70.7969 O.2       10 UNK        -0.5018 
     22 N         -73.5362   29.2044  -74.0557 N.am      10 UNK        -0.4509 
     23 C         -72.2066   29.3516  -73.9958 C.2       10 UNK         0.4899 
     24 O         -71.6254   29.9582  -73.0946 O.2       10 UNK        -0.4839 
     25 CA        -71.3949   28.6883  -75.1273 C.3       9 UNK         0.0222 
     26 CB        -69.9200   28.4431  -74.7443 C.3       9 UNK        -0.1966 
     27 N         -72.0162   27.4544  -75.6300 N.am      9 UNK        -0.4218 
     28 C         -72.3099   26.3463  -74.9264 C.2       9 UNK         0.5020 
     29 O         -72.0229   26.2077  -73.7367 O.2       9 UNK        -0.5274 
     30 CA        -73.0925   25.2224  -75.6345 C.3       8 UNK         0.0270 
     31 CB        -74.3436   24.8354  -74.8227 C.3       8 UNK        -0.1976 
     32 N         -73.5004   25.6017  -76.9901 N.am      8 UNK        -0.4313 
     33 C         -72.7970   25.3367  -78.1015 C.2       8 UNK         0.5041 
     34 O         -71.7811   24.6411  -78.1150 O.2       8 UNK        -0.5577 
     35 CA        -73.2744   25.9798  -79.4197 C.3       7 UNK         0.0284 
     36 CB        -74.0615   24.9668  -80.2655 C.3       7 UNK        -0.1958 
     37 N         -74.0815   27.1898  -79.2302 N.am      7 UNK        -0.4454 
     38 C         -73.6290   28.3343  -78.6980 C.2       7 UNK         0.5089 
     39 O         -72.4580   28.5109  -78.3650 O.2       7 UNK        -0.5125 
     40 CA        -74.6621   29.4426  -78.4243 C.3       6 UNK         0.0408 
     41 CB        -74.6707   30.4639  -79.5716 C.3       6 UNK        -0.1791 
     42 N         -76.0277   28.9529  -78.1964 N.am      6 UNK        -0.4762 
     43 C         -76.4000   28.1201  -77.2112 C.2       6 UNK         0.5007 
     44 O         -75.5957   27.6336  -76.4130 O.2       6 UNK        -0.5032 
     45 CA        -77.8948   27.7410  -77.1189 C.3       5 UNK         0.0783 
     46 C46       -78.8081   28.5368  -78.0932 C.3       11 UNK        -0.0857 
     47 S47       -80.5765   28.1861  -77.8060 S.3       11 UNK        -0.2512 
     48 C48       -81.1456   29.7283  -77.0229 C.3       11 UNK         0.0225 
     49 N         -78.0330   26.3016  -77.3449 N.am      5 UNK        -0.4615 
     50 C         -78.0054   25.3540  -76.4038 C.2       4 UNK         0.5053 
     51 O         -77.8500   25.5657  -75.1980 O.2       4 UNK        -0.5105 
     52 CA        -78.1992   23.9201  -76.9144 C.3       4 UNK         0.0263 
     53 CB        -77.0157   23.4560  -77.7852 C.3       4 UNK        -0.1981 
     54 N         -78.3635   23.0284  -75.7732 N.am      4 UNK        -0.4224 
     55 C         -79.0233   21.8640  -75.7768 C.2       3 UNK         0.4895 
     56 O         -79.5322   21.3708  -76.7844 O.2       3 UNK        -0.5091 
     57 CA        -79.1379   21.1090  -74.4379 C.3       3 UNK         0.0250 
     58 CB        -78.1706   19.9135  -74.4144 C.3       3 UNK        -0.1996 
     59 N         -78.8871   21.9479  -73.2610 N.am      3 UNK        -0.4254 
     60 C         -79.7218   22.8971  -72.8086 C.2       2 UNK         0.5004 
     61 O         -80.8190   23.1394  -73.3106 O.2       2 UNK        -0.5226 
     62 CA        -79.2395   23.7370  -71.6192 C.3       2 UNK         0.0269 
     63 CB        -79.5435   23.0269  -70.2872 C.3       2 UNK        -0.1926 
     64 N         -77.8033   24.0144  -71.7323 N.am      2 UNK        -0.4687 
     65 C         -77.1324   25.0985  -71.3234 C.2       1 UNK         0.5165 
     66 O         -75.9224   25.1981  -71.5259 O.2       1 UNK        -0.5079 
     67 H67       -74.7469   26.5636  -67.4503 H         1 UNK         0.0900 
     68 H68       -76.0397   27.4845  -66.6751 H         1 UNK         0.0900 
     69 H69       -75.2880   28.0899  -68.1520 H         1 UNK         0.0900 
     70 H70       -76.4668   27.7101  -70.0117 H         1 UNK         0.2959 
     71 H71       -78.6975   25.8259  -70.0226 H         1 UNK         0.1079 
     72 H72       -77.6626   27.8060  -72.1233 H         1 UNK         0.0837 
     73 H73       -79.0236   26.7551  -72.3996 H         1 UNK         0.0837 
     74 H74       -81.6122   29.3874  -71.6191 H         1 UNK         0.0685 
     75 H75       -81.2723   27.8384  -72.3526 H         1 UNK         0.0685 
     76 H76       -81.7393   28.6122  -74.6110 H         1 UNK         0.1434 
     77 H77       -79.0250   31.3615  -76.4748 H         1 UNK         0.1329 
     78 H78       -78.7612   30.6291  -72.2707 H         1 UNK         0.1335 
     79 H79       -77.6810   32.8508  -74.9271 H         1 UNK         0.0680 
     80 H80       -77.3971   32.3596  -73.2753 H         1 UNK         0.0680 
     81 H81       -76.2775   28.8531  -73.9862 H         1 UNK         0.1032 
     82 H82       -76.5802   30.0326  -72.7383 H         1 UNK         0.1032 
     83 H83       -74.1491   30.5710  -72.6171 H         1 UNK         0.0461 
     84 H84       -73.7954   26.9501  -70.9303 H         1 UNK         0.3453 
     85 H85       -73.1393   27.3025  -72.5059 H         1 UNK         0.3453 
     86 H86       -73.9381   28.6931  -74.8294 H         1 UNK         0.2984 
     87 H87       -71.4054   29.3948  -75.9582 H         1 UNK         0.0554 
     88 H88       -69.3681   27.9847  -75.5647 H         1 UNK         0.0847 
     89 H89       -69.8300   27.7924  -73.8739 H         1 UNK         0.0847 
     90 H90       -69.4173   29.3802  -74.5018 H         1 UNK         0.0847 
     91 H91       -72.2763   27.4861  -76.6100 H         1 UNK         0.3141 
     92 H92       -72.4363   24.3506  -75.6736 H         1 UNK         0.0743 
     93 H93       -75.0321   25.6735  -74.7088 H         1 UNK         0.0784 
     94 H94       -74.8867   24.0157  -75.2906 H         1 UNK         0.0784 
     95 H95       -74.0756   24.5054  -73.8180 H         1 UNK         0.0784 
     96 H96       -74.3097   26.2134  -77.0466 H         1 UNK         0.3213 
     97 H97       -72.3801   26.2644  -79.9787 H         1 UNK         0.0855 
     98 H98       -74.9807   24.6557  -79.7715 H         1 UNK         0.0814 
     99 H99       -73.4703   24.0680  -80.4471 H         1 UNK         0.0814 
    100 H100      -74.3247   25.3804  -81.2392 H         1 UNK         0.0814 
    101 H101      -75.0583   27.1359  -79.4787 H         1 UNK         0.3105 
    102 H102      -74.3471   29.9577  -77.5141 H         1 UNK         0.0547 
    103 H103      -73.6705   30.8636  -79.7454 H         1 UNK         0.0837 
    104 H104      -75.0106   30.0193  -80.5077 H         1 UNK         0.0837 
    105 H105      -75.3188   31.3107  -79.3449 H         1 UNK         0.0837 
    106 H106      -76.7359   29.3060  -78.8233 H         1 UNK         0.3020 
    107 H107      -78.2017   27.9782  -76.0967 H         1 UNK         0.1245 
    108 H108      -78.5866   28.2797  -79.1308 H         1 UNK         0.0781 
    109 H109      -78.6426   29.6109  -78.0059 H         1 UNK         0.0781 
    110 H110      -82.2257   29.6736  -76.8792 H         1 UNK         0.0836 
    111 H111      -80.9734   30.5659  -77.7008 H         1 UNK         0.0836 
    112 H112      -78.1726   26.0217  -78.3042 H         1 UNK         0.3022 
    113 H113      -79.1157   23.9018  -77.5086 H         1 UNK         0.0747 
    114 H114      -77.1286   22.4157  -78.0908 H         1 UNK         0.0793 
    115 H115      -76.9502   24.0475  -78.6976 H         1 UNK         0.0793 
    116 H116      -76.0639   23.5481  -77.2625 H         1 UNK         0.0793 
    117 H117      -78.0319   23.4149  -74.8988 H         1 UNK         0.3047 
    118 H118      -80.1580   20.7242  -74.3704 H         1 UNK         0.0822 
    119 H119      -78.3528   19.2473  -75.2590 H         1 UNK         0.0807 
    120 H120      -78.2917   19.3212  -73.5071 H         1 UNK         0.0807 
    121 H121      -77.1296   20.2340  -74.4723 H         1 UNK         0.0807 
    122 H122      -78.0333   21.7619  -72.7572 H         1 UNK         0.2946 
    123 H123      -79.8094   24.6664  -71.6602 H         1 UNK         0.1144 
    124 H124      -80.6097   22.8153  -70.1935 H         1 UNK         0.0793 
    125 H125      -79.2593   23.6330  -69.4272 H         1 UNK         0.0793 
    126 H126      -79.0151   22.0762  -70.2078 H         1 UNK         0.0793 
    127 H127      -77.2646   23.3198  -72.2254 H         1 UNK         0.2896 
@<TRIPOS>BOND
     1    1    2 1    
     2    1   67 1    
     3    1   68 1    
     4    1   69 1    
     5    2    3 2    
     6    2    4 am   BACKBONE|DICT|INTERRES
     7    4    5 1    
     8    4   70 1    
     9    5    6 1    
    10    5   65 1    
    11    5   71 1    
    12    6    7 1    
    13    6   72 1    
    14    6   73 1    
    15    7    8 1    
    16    8    9 1    
    17    8   74 1    
    18    8   75 1    
    19    9   10 ar   
    20    9   14 ar   
    21   10   11 ar   
    22   10   76 1    
    23   11   12 ar   
    24   11   48 1    
    25   12   13 ar   
    26   12   77 1    
    27   13   14 ar   
    28   13   15 1    
    29   14   78 1    
    30   15   16 1    
    31   15   79 1    
    32   15   80 1    
    33   16   17 1    
    34   17   18 1    
    35   17   81 1    
    36   17   82 1    
    37   18   19 1    
    38   18   22 1    
    39   18   83 1    
    40   19   20 am   BACKBONE|DICT|INTERRES
    41   19   21 2    
    42   20   84 1    
    43   20   85 1    
    44   22   23 am   BACKBONE|DICT|INTERRES
    45   22   86 1    
    46   23   24 2    
    47   23   25 1    
    48   25   26 1    
    49   25   27 1    
    50   25   87 1    
    51   26   88 1    
    52   26   89 1    
    53   26   90 1    
    54   27   28 am   BACKBONE|DICT|INTERRES
    55   27   91 1    
    56   28   29 2    
    57   28   30 1    
    58   30   31 1    
    59   30   32 1    
    60   30   92 1    
    61   31   93 1    
    62   31   94 1    
    63   31   95 1    
    64   32   33 am   BACKBONE|DICT|INTERRES
    65   32   96 1    
    66   33   34 2    
    67   33   35 1    
    68   35   36 1    
    69   35   37 1    
    70   35   97 1    
    71   36   98 1    
    72   36   99 1    
    73   36  100 1    
    74   37   38 am   BACKBONE|DICT|INTERRES
    75   37  101 1    
    76   38   39 2    
    77   38   40 1    
    78   40   41 1    
    79   40   42 1    
    80   40  102 1    
    81   41  103 1    
    82   41  104 1    
    83   41  105 1    
    84   42   43 am   BACKBONE|DICT|INTERRES
    85   42  106 1    
    86   43   44 2    
    87   43   45 1    
    88   45   46 1    
    89   45   49 1    
    90   45  107 1    
    91   46   47 1    
    92   46  108 1    
    93   46  109 1    
    94   47   48 1    
    95   48  110 1    
    96   48  111 1    
    97   49   50 am   BACKBONE|DICT|INTERRES
    98   49  112 1    
    99   50   51 2    
   100   50   52 1    
   101   52   53 1    
   102   52   54 1    
   103   52  113 1    
   104   53  114 1    
   105   53  115 1    
   106   53  116 1    
   107   54   55 am   BACKBONE|DICT|INTERRES
   108   54  117 1    
   109   55   56 2    
   110   55   57 1    
   111   57   58 1    
   112   57   59 1    
   113   57  118 1    
   114   58  119 1    
   115   58  120 1    
   116   58  121 1    
   117   59   60 am   BACKBONE|DICT|INTERRES
   118   59  122 1    
   119   60   61 2    
   120   60   62 1    
   121   62   63 1    
   122   62   64 1    
   123   62  123 1    
   124   63  124 1    
   125   63  125 1    
   126   63  126 1    
   127   64   65 am   BACKBONE|DICT|INTERRES
   128   64  127 1    
   129   65   66 2    
@<TRIPOS>SUBSTRUCTURE
     1 UNK         1 GROUP             0       ****    0 ROOT    
