@<TRIPOS>MOLECULE
3R135
127   129    1
SMALL
USER_CHARGES


@<TRIPOS>ATOM
      1 CA        -80.5332   31.5732  -75.1985 C.3       0 UNK        -0.1998 
      2 C         -80.2320   30.1552  -74.7402 C.2       0 UNK         0.4909 
      3 O         -79.3690   29.4964  -75.3180 O.2       0 UNK        -0.5240 
      4 N         -80.9527   29.6706  -73.7189 N.am      1 UNK        -0.4739 
      5 CA        -80.7560   28.3676  -73.0579 C.3       1 UNK         0.0864 
      6 C6        -81.6613   28.2079  -71.8085 C.3       11 UNK        -0.0881 
      7 S7        -81.5405   29.6257  -70.6595 S.3       11 UNK        -0.2682 
      8 C8        -80.5168   28.9599  -69.3039 C.3       11 UNK         0.0289 
      9 C9        -79.1537   28.4564  -69.7659 C.ar      11 UNK        -0.0687 
     10 C10       -78.7315   27.1712  -69.4123 C.ar      11 UNK        -0.0823 
     11 C11       -77.4929   26.6860  -69.8413 C.ar      11 UNK        -0.0830 
     12 C12       -76.6695   27.5001  -70.6244 C.ar      11 UNK        -0.1021 
     13 C13       -77.0776   28.7872  -70.9847 C.ar      11 UNK        -0.0753 
     14 C14       -78.3133   29.2657  -70.5389 C.ar      11 UNK        -0.0933 
     15 C15       -76.1925   29.6530  -71.8684 C.3       11 UNK         0.0166 
     16 S16       -76.2859   29.1144  -73.6045 S.3       11 UNK        -0.2615 
     17 C17       -76.2850   30.7114  -74.4868 C.3       11 UNK        -0.0865 
     18 CA        -75.7366   30.5893  -75.9361 C.3       10 UNK         0.0862 
     19 C         -76.1431   31.8049  -76.8222 C.2       10 UNK         0.5551 
     20 N         -75.2548   32.3568  -77.6413 N.am      10 UNK        -0.7319 
     21 O         -77.2856   32.2536  -76.7813 O.2       10 UNK        -0.5018 
     22 N         -74.2820   30.3532  -75.9381 N.am      10 UNK        -0.4509 
     23 C         -73.6646   29.2351  -76.3318 C.2       10 UNK         0.4899 
     24 O         -74.2427   28.2243  -76.7364 O.2       10 UNK        -0.4839 
     25 CA        -72.1291   29.2599  -76.2666 C.3       9 UNK         0.0222 
     26 CB        -71.6013   29.7385  -74.8971 C.3       9 UNK        -0.1966 
     27 N         -71.6138   27.9251  -76.5602 N.am      9 UNK        -0.4218 
     28 C         -70.4160   27.6389  -77.0847 C.2       9 UNK         0.5020 
     29 O         -69.5870   28.4990  -77.3873 O.2       9 UNK        -0.5274 
     30 CA        -70.0569   26.1530  -77.2930 C.3       8 UNK         0.0270 
     31 CB        -68.7868   25.7846  -76.5062 C.3       8 UNK        -0.1976 
     32 N         -71.1288   25.2387  -76.8935 N.am      8 UNK        -0.4313 
     33 C         -72.1615   24.8596  -77.6526 C.2       8 UNK         0.5041 
     34 O         -72.3050   25.1993  -78.8271 O.2       8 UNK        -0.5577 
     35 CA        -73.2337   23.9812  -76.9828 C.3       7 UNK         0.0284 
     36 CB        -72.8129   22.4999  -76.9454 C.3       7 UNK        -0.1958 
     37 N         -73.6614   24.4592  -75.6596 N.am      7 UNK        -0.4454 
     38 C         -72.9744   24.5237  -74.5088 C.2       7 UNK         0.5089 
     39 O         -71.8038   24.1613  -74.3875 O.2       7 UNK        -0.5125 
     40 CA        -73.6959   25.1365  -73.2998 C.3       6 UNK         0.0408 
     41 CB        -73.5458   26.6638  -73.3289 C.3       6 UNK        -0.1791 
     42 N         -75.1164   24.7793  -73.2838 N.am      6 UNK        -0.4762 
     43 C         -75.6438   23.8074  -72.5235 C.2       6 UNK         0.5007 
     44 O         -75.0035   23.1758  -71.6817 O.2       6 UNK        -0.5032 
     45 CA        -77.1281   23.4495  -72.7683 C.3       5 UNK         0.0783 
     46 C46       -78.0860   24.3571  -71.9626 C.3       11 UNK        -0.0857 
     47 S47       -78.1319   23.9874  -70.1757 S.3       11 UNK        -0.2512 
     48 C48       -77.0473   25.2766  -69.4739 C.3       11 UNK         0.0225 
     49 N         -77.4680   23.4828  -74.1928 N.am      5 UNK        -0.4615 
     50 C         -76.9340   22.6913  -75.1319 C.2       4 UNK         0.5053 
     51 O         -76.1899   21.7436  -74.8807 O.2       4 UNK        -0.5105 
     52 CA        -77.2617   23.0105  -76.6025 C.3       4 UNK         0.0263 
     53 CB        -78.2671   21.9893  -77.1581 C.3       4 UNK        -0.1981 
     54 N         -77.7725   24.3619  -76.8643 N.am      4 UNK        -0.4224 
     55 C         -77.1849   25.5304  -76.5764 C.2       3 UNK         0.4895 
     56 O         -76.1413   25.6235  -75.9323 O.2       3 UNK        -0.5091 
     57 CA        -77.8838   26.8100  -77.0697 C.3       3 UNK         0.0250 
     58 CB        -77.6966   26.9988  -78.5862 C.3       3 UNK        -0.1996 
     59 N         -79.2959   26.9282  -76.6803 N.am      3 UNK        -0.4254 
     60 C         -80.3389   26.1327  -76.9743 C.2       2 UNK         0.5004 
     61 O         -80.2640   25.1702  -77.7406 O.2       2 UNK        -0.5226 
     62 CA        -81.6932   26.4461  -76.2972 C.3       2 UNK         0.0269 
     63 CB        -82.4652   25.1629  -75.9222 C.3       2 UNK        -0.1926 
     64 N         -81.5903   27.3487  -75.1407 N.am      2 UNK        -0.4687 
     65 C         -80.9063   27.1522  -74.0006 C.2       1 UNK         0.5165 
     66 O         -80.3601   26.0896  -73.7056 O.2       1 UNK        -0.5079 
     67 H67       -81.3330   32.0301  -74.6161 H         1 UNK         0.0900 
     68 H68       -79.6430   32.1940  -75.1002 H         1 UNK         0.0900 
     69 H69       -80.8311   31.5726  -76.2466 H         1 UNK         0.0900 
     70 H70       -81.6457   30.2626  -73.2822 H         1 UNK         0.2959 
     71 H71       -79.7162   28.3469  -72.7261 H         1 UNK         0.1079 
     72 H72       -81.4153   27.2886  -71.2728 H         1 UNK         0.0837 
     73 H73       -82.7068   28.1119  -72.1077 H         1 UNK         0.0837 
     74 H74       -80.3667   29.7438  -68.5605 H         1 UNK         0.0685 
     75 H75       -81.0763   28.1665  -68.8057 H         1 UNK         0.0685 
     76 H76       -79.3712   26.5370  -68.8136 H         1 UNK         0.1434 
     77 H77       -75.7171   27.1260  -70.9711 H         1 UNK         0.1329 
     78 H78       -78.6367   30.2597  -70.8165 H         1 UNK         0.1335 
     79 H79       -76.4913   30.6988  -71.7826 H         1 UNK         0.0680 
     80 H80       -75.1566   29.5983  -71.5305 H         1 UNK         0.0680 
     81 H81       -77.3146   31.0710  -74.4828 H         1 UNK         0.1032 
     82 H82       -75.7059   31.4473  -73.9267 H         1 UNK         0.1032 
     83 H83       -76.2393   29.7436  -76.4076 H         1 UNK         0.0461 
     84 H84       -74.3237   31.9817  -77.7211 H         1 UNK         0.3453 
     85 H85       -75.5334   33.1398  -78.2116 H         1 UNK         0.3453 
     86 H86       -73.7207   31.1340  -75.6307 H         1 UNK         0.2984 
     87 H87       -71.7862   29.9475  -77.0424 H         1 UNK         0.0554 
     88 H88       -70.5158   29.6590  -74.8377 H         1 UNK         0.0847 
     89 H89       -72.0224   29.1594  -74.0758 H         1 UNK         0.0847 
     90 H90       -71.8481   30.7849  -74.7168 H         1 UNK         0.0847 
     91 H91       -72.2869   27.1797  -76.4385 H         1 UNK         0.3141 
     92 H92       -69.8508   26.0166  -78.3567 H         1 UNK         0.0743 
     93 H93       -67.9431   26.4081  -76.8054 H         1 UNK         0.0784 
     94 H94       -68.9260   25.9165  -75.4323 H         1 UNK         0.0784 
     95 H95       -68.4981   24.7481  -76.6823 H         1 UNK         0.0784 
     96 H96       -71.1137   24.8944  -75.9346 H         1 UNK         0.3213 
     97 H97       -74.1223   24.0504  -77.6124 H         1 UNK         0.0855 
     98 H98       -71.9152   22.3422  -76.3471 H         1 UNK         0.0814 
     99 H99       -72.6005   22.1319  -77.9499 H         1 UNK         0.0814 
    100 H100      -73.6052   21.8756  -76.5314 H         1 UNK         0.0814 
    101 H101      -74.5937   24.8753  -75.6623 H         1 UNK         0.3105 
    102 H102      -73.2005   24.7713  -72.3979 H         1 UNK         0.0547 
    103 H103      -72.4943   26.9475  -73.3823 H         1 UNK         0.0837 
    104 H104      -74.0515   27.1022  -74.1894 H         1 UNK         0.0837 
    105 H105      -73.9556   27.1235  -72.4314 H         1 UNK         0.0837 
    106 H106      -75.6997   25.2146  -73.9915 H         1 UNK         0.3020 
    107 H107      -77.2686   22.4187  -72.4346 H         1 UNK         0.1245 
    108 H108      -79.1066   24.2012  -72.3150 H         1 UNK         0.0781 
    109 H109      -77.8796   25.4120  -72.1480 H         1 UNK         0.0781 
    110 H110      -76.0218   25.0952  -69.7990 H         1 UNK         0.0836 
    111 H111      -77.0415   25.1777  -68.3876 H         1 UNK         0.0836 
    112 H112      -78.0820   24.2273  -74.4907 H         1 UNK         0.3022 
    113 H113      -76.3292   22.9086  -77.1603 H         1 UNK         0.0747 
    114 H114      -78.4227   22.1272  -78.2283 H         1 UNK         0.0793 
    115 H115      -77.9121   20.9679  -77.0134 H         1 UNK         0.0793 
    116 H116      -79.2368   22.0721  -76.6652 H         1 UNK         0.0793 
    117 H117      -78.6691   24.4232  -77.3452 H         1 UNK         0.3047 
    118 H118      -77.3791   27.6407  -76.5735 H         1 UNK         0.0822 
    119 H119      -78.0993   27.9565  -78.9159 H         1 UNK         0.0807 
    120 H120      -78.1857   26.2127  -79.1621 H         1 UNK         0.0807 
    121 H121      -76.6377   26.9855  -78.8489 H         1 UNK         0.0807 
    122 H122      -79.4765   27.7164  -76.0622 H         1 UNK         0.2946 
    123 H123      -82.2807   26.9773  -77.0479 H         1 UNK         0.1144 
    124 H124      -81.8969   24.5320  -75.2382 H         1 UNK         0.0793 
    125 H125      -82.6837   24.5639  -76.8072 H         1 UNK         0.0793 
    126 H126      -83.4190   25.3969  -75.4495 H         1 UNK         0.0793 
    127 H127      -81.9825   28.2707  -75.2753 H         1 UNK         0.2896 
@<TRIPOS>BOND
     1    1    2 1    
     2    1   67 1    
     3    1   68 1    
     4    1   69 1    
     5    2    3 2    
     6    2    4 am   BACKBONE|DICT|INTERRES
     7    4    5 1    
     8    4   70 1    
     9    5    6 1    
    10    5   65 1    
    11    5   71 1    
    12    6    7 1    
    13    6   72 1    
    14    6   73 1    
    15    7    8 1    
    16    8    9 1    
    17    8   74 1    
    18    8   75 1    
    19    9   10 ar   
    20    9   14 ar   
    21   10   11 ar   
    22   10   76 1    
    23   11   12 ar   
    24   11   48 1    
    25   12   13 ar   
    26   12   77 1    
    27   13   14 ar   
    28   13   15 1    
    29   14   78 1    
    30   15   16 1    
    31   15   79 1    
    32   15   80 1    
    33   16   17 1    
    34   17   18 1    
    35   17   81 1    
    36   17   82 1    
    37   18   19 1    
    38   18   22 1    
    39   18   83 1    
    40   19   20 am   BACKBONE|DICT|INTERRES
    41   19   21 2    
    42   20   84 1    
    43   20   85 1    
    44   22   23 am   BACKBONE|DICT|INTERRES
    45   22   86 1    
    46   23   24 2    
    47   23   25 1    
    48   25   26 1    
    49   25   27 1    
    50   25   87 1    
    51   26   88 1    
    52   26   89 1    
    53   26   90 1    
    54   27   28 am   BACKBONE|DICT|INTERRES
    55   27   91 1    
    56   28   29 2    
    57   28   30 1    
    58   30   31 1    
    59   30   32 1    
    60   30   92 1    
    61   31   93 1    
    62   31   94 1    
    63   31   95 1    
    64   32   33 am   BACKBONE|DICT|INTERRES
    65   32   96 1    
    66   33   34 2    
    67   33   35 1    
    68   35   36 1    
    69   35   37 1    
    70   35   97 1    
    71   36   98 1    
    72   36   99 1    
    73   36  100 1    
    74   37   38 am   BACKBONE|DICT|INTERRES
    75   37  101 1    
    76   38   39 2    
    77   38   40 1    
    78   40   41 1    
    79   40   42 1    
    80   40  102 1    
    81   41  103 1    
    82   41  104 1    
    83   41  105 1    
    84   42   43 am   BACKBONE|DICT|INTERRES
    85   42  106 1    
    86   43   44 2    
    87   43   45 1    
    88   45   46 1    
    89   45   49 1    
    90   45  107 1    
    91   46   47 1    
    92   46  108 1    
    93   46  109 1    
    94   47   48 1    
    95   48  110 1    
    96   48  111 1    
    97   49   50 am   BACKBONE|DICT|INTERRES
    98   49  112 1    
    99   50   51 2    
   100   50   52 1    
   101   52   53 1    
   102   52   54 1    
   103   52  113 1    
   104   53  114 1    
   105   53  115 1    
   106   53  116 1    
   107   54   55 am   BACKBONE|DICT|INTERRES
   108   54  117 1    
   109   55   56 2    
   110   55   57 1    
   111   57   58 1    
   112   57   59 1    
   113   57  118 1    
   114   58  119 1    
   115   58  120 1    
   116   58  121 1    
   117   59   60 am   BACKBONE|DICT|INTERRES
   118   59  122 1    
   119   60   61 2    
   120   60   62 1    
   121   62   63 1    
   122   62   64 1    
   123   62  123 1    
   124   63  124 1    
   125   63  125 1    
   126   63  126 1    
   127   64   65 am   BACKBONE|DICT|INTERRES
   128   64  127 1    
   129   65   66 2    
@<TRIPOS>SUBSTRUCTURE
     1 UNK         1 GROUP             0       ****    0 ROOT    
