@<TRIPOS>MOLECULE
3R135
127   129    1
SMALL
USER_CHARGES


@<TRIPOS>ATOM
      1 CA        -76.5436   26.3516  -72.0396 C.3       0 UNK        -0.1998 
      2 C         -76.6068   24.9492  -71.4322 C.2       0 UNK         0.4909 
      3 O         -75.5674   24.2961  -71.3719 O.2       0 UNK        -0.5240 
      4 N         -77.7462   24.4124  -70.9629 N.am      1 UNK        -0.4739 
      5 CA        -79.1143   24.9464  -70.8910 C.3       1 UNK         0.0864 
      6 C6        -79.2165   26.1805  -69.9462 C.3       11 UNK        -0.0881 
      7 S7        -80.9046   26.8359  -69.7091 S.3       11 UNK        -0.2682 
      8 C8        -80.6362   28.6367  -69.8087 C.3       11 UNK         0.0289 
      9 C9        -79.9621   29.0916  -71.1001 C.ar      11 UNK        -0.0687 
     10 C10       -80.5615   28.8581  -72.3429 C.ar      11 UNK        -0.0823 
     11 C11       -79.9687   29.3337  -73.5182 C.ar      11 UNK        -0.0830 
     12 C12       -78.7693   30.0464  -73.4437 C.ar      11 UNK        -0.1021 
     13 C13       -78.1589   30.2818  -72.2099 C.ar      11 UNK        -0.0753 
     14 C14       -78.7539   29.7951  -71.0429 C.ar      11 UNK        -0.0933 
     15 C15       -76.8968   31.1252  -72.1402 C.3       11 UNK         0.0166 
     16 S16       -75.4182   30.2053  -72.6620 S.3       11 UNK        -0.2615 
     17 C17       -74.2620   31.6152  -72.7862 C.3       11 UNK        -0.0865 
     18 CA        -72.8002   31.2338  -73.1349 C.3       10 UNK         0.0862 
     19 C         -72.0280   30.6109  -71.9327 C.2       10 UNK         0.5551 
     20 N         -71.2984   29.5131  -72.0929 N.am      10 UNK        -0.7319 
     21 O         -72.0728   31.1502  -70.8295 O.2       10 UNK        -0.5018 
     22 N         -72.7348   30.4584  -74.3811 N.am      10 UNK        -0.4509 
     23 C         -71.7357   30.5004  -75.2696 C.2       10 UNK         0.4899 
     24 O         -70.7847   31.2809  -75.2010 O.2       10 UNK        -0.4839 
     25 CA        -71.8154   29.4647  -76.4078 C.3       9 UNK         0.0222 
     26 CB        -70.5228   29.3824  -77.2460 C.3       9 UNK        -0.1966 
     27 N         -72.2020   28.1343  -75.9222 N.am      9 UNK        -0.4218 
     28 C         -71.5732   27.3931  -74.9949 C.2       9 UNK         0.5020 
     29 O         -70.5573   27.7477  -74.3961 O.2       9 UNK        -0.5274 
     30 CA        -72.2020   26.0338  -74.6537 C.3       8 UNK         0.0270 
     31 CB        -73.2766   26.2125  -73.5715 C.3       8 UNK        -0.1976 
     32 N         -72.7934   25.3843  -75.8230 N.am      8 UNK        -0.4313 
     33 C         -72.0994   24.8862  -76.8557 C.2       8 UNK         0.5041 
     34 O         -70.8703   24.8150  -76.8915 O.2       8 UNK        -0.5577 
     35 CA        -72.9202   24.4241  -78.0690 C.3       7 UNK         0.0284 
     36 CB        -73.4971   23.0156  -77.8472 C.3       7 UNK        -0.1958 
     37 N         -73.9989   25.3690  -78.3697 N.am      7 UNK        -0.4454 
     38 C         -73.8154   26.5553  -78.9666 C.2       7 UNK         0.5089 
     39 O         -72.7280   26.9460  -79.3907 O.2       7 UNK        -0.5125 
     40 CA        -75.0445   27.4666  -79.1238 C.3       6 UNK         0.0408 
     41 CB        -75.6351   27.3260  -80.5357 C.3       6 UNK        -0.1791 
     42 N         -76.0964   27.2102  -78.1371 N.am      6 UNK        -0.4762 
     43 C         -76.0625   27.6152  -76.8588 C.2       6 UNK         0.5007 
     44 O         -75.1090   28.2072  -76.3509 O.2       6 UNK        -0.5032 
     45 CA        -77.2967   27.2520  -76.0061 C.3       5 UNK         0.0783 
     46 C46       -78.5212   28.0937  -76.4638 C.3       11 UNK        -0.0857 
     47 S47       -80.0991   27.6005  -75.6828 S.3       11 UNK        -0.2512 
     48 C48       -80.6504   29.1262  -74.8619 C.3       11 UNK         0.0225 
     49 N         -77.6003   25.8151  -76.0133 N.am      5 UNK        -0.4615 
     50 C         -76.7648   24.7754  -75.8860 C.2       4 UNK         0.5053 
     51 O         -75.5438   24.8890  -75.7925 O.2       4 UNK        -0.5105 
     52 CA        -77.3792   23.3614  -75.8695 C.3       4 UNK         0.0263 
     53 CB        -77.0120   22.6221  -74.5725 C.3       4 UNK        -0.1981 
     54 N         -78.8368   23.3543  -76.0197 N.am      4 UNK        -0.4224 
     55 C         -79.5114   23.5159  -77.1648 C.2       3 UNK         0.4895 
     56 O         -78.9648   23.6174  -78.2630 O.2       3 UNK        -0.5091 
     57 CA        -81.0465   23.6415  -77.0788 C.3       3 UNK         0.0250 
     58 CB        -81.7320   22.2735  -77.2657 C.3       3 UNK        -0.1996 
     59 N         -81.5330   24.3453  -75.8786 N.am      3 UNK        -0.4254 
     60 C         -81.4917   23.9454  -74.5994 C.2       2 UNK         0.5004 
     61 O         -81.0923   22.8370  -74.2347 O.2       2 UNK        -0.5226 
     62 CA        -81.9323   24.9771  -73.5454 C.3       2 UNK         0.0269 
     63 CB        -83.4052   24.7636  -73.1633 C.3       2 UNK        -0.1926 
     64 N         -81.1089   24.9283  -72.3323 N.am      2 UNK        -0.4687 
     65 C         -79.7778   25.0949  -72.2854 C.2       1 UNK         0.5165 
     66 O         -79.0966   25.3196  -73.2860 O.2       1 UNK        -0.5079 
     67 H67       -76.1596   26.2767  -73.0549 H         1 UNK         0.0900 
     68 H68       -75.8640   26.9816  -71.4668 H         1 UNK         0.0900 
     69 H69       -77.4972   26.8660  -72.1099 H         1 UNK         0.0900 
     70 H70       -77.6745   23.4678  -70.6117 H         1 UNK         0.2959 
     71 H71       -79.6746   24.1476  -70.4016 H         1 UNK         0.1079 
     72 H72       -78.8447   25.9003  -68.9595 H         1 UNK         0.0837 
     73 H73       -78.5622   26.9860  -70.2664 H         1 UNK         0.0837 
     74 H74       -81.6010   29.1381  -69.7215 H         1 UNK         0.0685 
     75 H75       -80.0539   28.9458  -68.9392 H         1 UNK         0.0685 
     76 H76       -81.4973   28.3180  -72.3907 H         1 UNK         0.1434 
     77 H77       -78.3160   30.4394  -74.3428 H         1 UNK         0.1329 
     78 H78       -78.2900   29.9915  -70.0859 H         1 UNK         0.1335 
     79 H79       -77.0230   32.0015  -72.7782 H         1 UNK         0.0680 
     80 H80       -76.7423   31.5035  -71.1284 H         1 UNK         0.0680 
     81 H81       -74.2981   32.1907  -71.8590 H         1 UNK         0.1032 
     82 H82       -74.6414   32.2879  -73.5571 H         1 UNK         0.1032 
     83 H83       -72.2856   32.1792  -73.3170 H         1 UNK         0.0461 
     84 H84       -71.1903   29.0755  -73.0001 H         1 UNK         0.3453 
     85 H85       -70.8033   29.1391  -71.2994 H         1 UNK         0.3453 
     86 H86       -73.4735   29.7808  -74.5104 H         1 UNK         0.2984 
     87 H87       -72.6186   29.7938  -77.0686 H         1 UNK         0.0554 
     88 H88       -70.2898   30.3453  -77.7021 H         1 UNK         0.0847 
     89 H89       -69.6641   29.0928  -76.6394 H         1 UNK         0.0847 
     90 H90       -70.6224   28.6570  -78.0539 H         1 UNK         0.0847 
     91 H91       -73.0931   27.7950  -76.2696 H         1 UNK         0.3141 
     92 H92       -71.4170   25.3838  -74.2616 H         1 UNK         0.0743 
     93 H93       -74.0719   26.8790  -73.9071 H         1 UNK         0.0784 
     94 H94       -73.7290   25.2585  -73.2996 H         1 UNK         0.0784 
     95 H95       -72.8522   26.6428  -72.6633 H         1 UNK         0.0784 
     96 H96       -73.8118   25.3260  -75.8510 H         1 UNK         0.3213 
     97 H97       -72.2490   24.3800  -78.9299 H         1 UNK         0.0855 
     98 H98       -72.6973   22.2939  -77.6764 H         1 UNK         0.0814 
     99 H99       -74.0587   22.6753  -78.7173 H         1 UNK         0.0814 
    100 H100      -74.1593   22.9729  -76.9824 H         1 UNK         0.0814 
    101 H101      -74.9127   25.1559  -77.9948 H         1 UNK         0.3105 
    102 H102      -74.7041   28.4974  -79.0017 H         1 UNK         0.0547 
    103 H103      -74.8828   27.5404  -81.2962 H         1 UNK         0.0837 
    104 H104      -76.0065   26.3174  -80.7213 H         1 UNK         0.0837 
    105 H105      -76.4585   28.0227  -80.6935 H         1 UNK         0.0837 
    106 H106      -76.9082   26.7006  -78.4573 H         1 UNK         0.3020 
    107 H107      -77.0687   27.5186  -74.9722 H         1 UNK         0.1245 
    108 H108      -78.6749   27.9995  -77.5405 H         1 UNK         0.0781 
    109 H109      -78.3356   29.1536  -76.2867 H         1 UNK         0.0781 
    110 H110      -81.7305   29.0696  -74.7188 H         1 UNK         0.0836 
    111 H111      -80.4823   29.9834  -75.5156 H         1 UNK         0.0836 
    112 H112      -78.5874   25.6039  -76.0064 H         1 UNK         0.3022 
    113 H113      -76.9409   22.8152  -76.7071 H         1 UNK         0.0747 
    114 H114      -77.3616   21.5898  -74.5923 H         1 UNK         0.0793 
    115 H115      -75.9314   22.5950  -74.4239 H         1 UNK         0.0793 
    116 H116      -77.4485   23.1065  -73.6991 H         1 UNK         0.0793 
    117 H117      -79.3819   23.2631  -75.1674 H         1 UNK         0.3047 
    118 H118      -81.3465   24.2691  -77.9198 H         1 UNK         0.0822 
    119 H119      -82.8177   22.3679  -77.2493 H         1 UNK         0.0807 
    120 H120      -81.4447   21.5600  -76.4930 H         1 UNK         0.0807 
    121 H121      -81.4594   21.8329  -78.2256 H         1 UNK         0.0807 
    122 H122      -81.8574   25.2867  -76.0558 H         1 UNK         0.2946 
    123 H123      -81.8243   25.9782  -73.9656 H         1 UNK         0.1144 
    124 H124      -84.0503   24.8255  -74.0409 H         1 UNK         0.0793 
    125 H125      -83.7469   25.5216  -72.4580 H         1 UNK         0.0793 
    126 H126      -83.5652   23.7845  -72.7098 H         1 UNK         0.0793 
    127 H127      -81.5995   24.7475  -71.4686 H         1 UNK         0.2896 
@<TRIPOS>BOND
     1    1    2 1    
     2    1   67 1    
     3    1   68 1    
     4    1   69 1    
     5    2    3 2    
     6    2    4 am   BACKBONE|DICT|INTERRES
     7    4    5 1    
     8    4   70 1    
     9    5    6 1    
    10    5   65 1    
    11    5   71 1    
    12    6    7 1    
    13    6   72 1    
    14    6   73 1    
    15    7    8 1    
    16    8    9 1    
    17    8   74 1    
    18    8   75 1    
    19    9   10 ar   
    20    9   14 ar   
    21   10   11 ar   
    22   10   76 1    
    23   11   12 ar   
    24   11   48 1    
    25   12   13 ar   
    26   12   77 1    
    27   13   14 ar   
    28   13   15 1    
    29   14   78 1    
    30   15   16 1    
    31   15   79 1    
    32   15   80 1    
    33   16   17 1    
    34   17   18 1    
    35   17   81 1    
    36   17   82 1    
    37   18   19 1    
    38   18   22 1    
    39   18   83 1    
    40   19   20 am   BACKBONE|DICT|INTERRES
    41   19   21 2    
    42   20   84 1    
    43   20   85 1    
    44   22   23 am   BACKBONE|DICT|INTERRES
    45   22   86 1    
    46   23   24 2    
    47   23   25 1    
    48   25   26 1    
    49   25   27 1    
    50   25   87 1    
    51   26   88 1    
    52   26   89 1    
    53   26   90 1    
    54   27   28 am   BACKBONE|DICT|INTERRES
    55   27   91 1    
    56   28   29 2    
    57   28   30 1    
    58   30   31 1    
    59   30   32 1    
    60   30   92 1    
    61   31   93 1    
    62   31   94 1    
    63   31   95 1    
    64   32   33 am   BACKBONE|DICT|INTERRES
    65   32   96 1    
    66   33   34 2    
    67   33   35 1    
    68   35   36 1    
    69   35   37 1    
    70   35   97 1    
    71   36   98 1    
    72   36   99 1    
    73   36  100 1    
    74   37   38 am   BACKBONE|DICT|INTERRES
    75   37  101 1    
    76   38   39 2    
    77   38   40 1    
    78   40   41 1    
    79   40   42 1    
    80   40  102 1    
    81   41  103 1    
    82   41  104 1    
    83   41  105 1    
    84   42   43 am   BACKBONE|DICT|INTERRES
    85   42  106 1    
    86   43   44 2    
    87   43   45 1    
    88   45   46 1    
    89   45   49 1    
    90   45  107 1    
    91   46   47 1    
    92   46  108 1    
    93   46  109 1    
    94   47   48 1    
    95   48  110 1    
    96   48  111 1    
    97   49   50 am   BACKBONE|DICT|INTERRES
    98   49  112 1    
    99   50   51 2    
   100   50   52 1    
   101   52   53 1    
   102   52   54 1    
   103   52  113 1    
   104   53  114 1    
   105   53  115 1    
   106   53  116 1    
   107   54   55 am   BACKBONE|DICT|INTERRES
   108   54  117 1    
   109   55   56 2    
   110   55   57 1    
   111   57   58 1    
   112   57   59 1    
   113   57  118 1    
   114   58  119 1    
   115   58  120 1    
   116   58  121 1    
   117   59   60 am   BACKBONE|DICT|INTERRES
   118   59  122 1    
   119   60   61 2    
   120   60   62 1    
   121   62   63 1    
   122   62   64 1    
   123   62  123 1    
   124   63  124 1    
   125   63  125 1    
   126   63  126 1    
   127   64   65 am   BACKBONE|DICT|INTERRES
   128   64  127 1    
   129   65   66 2    
@<TRIPOS>SUBSTRUCTURE
     1 UNK         1 GROUP             0       ****    0 ROOT    
