@<TRIPOS>MOLECULE
3R135
127   129    1
SMALL
USER_CHARGES


@<TRIPOS>ATOM
      1 CA        -83.1581   22.0863  -73.6207 C.3       0 UNK        -0.1998 
      2 C         -82.2211   23.2577  -73.3706 C.2       0 UNK         0.4909 
      3 O         -81.0247   23.1471  -73.6395 O.2       0 UNK        -0.5240 
      4 N         -82.7600   24.3826  -72.8753 N.am      1 UNK        -0.4739 
      5 CA        -82.0356   25.6191  -72.5444 C.3       1 UNK         0.0864 
      6 C6        -81.1343   25.4410  -71.2928 C.3       11 UNK        -0.0881 
      7 S7        -80.7347   27.0206  -70.4638 S.3       11 UNK        -0.2682 
      8 C8        -78.9162   26.9184  -70.2890 C.3       11 UNK         0.0289 
      9 C9        -78.1473   28.1141  -70.8502 C.ar      11 UNK        -0.0687 
     10 C10       -78.6140   28.8573  -71.9427 C.ar      11 UNK        -0.0823 
     11 C11       -77.8692   29.9268  -72.4507 C.ar      11 UNK        -0.0830 
     12 C12       -76.6424   30.2484  -71.8661 C.ar      11 UNK        -0.1021 
     13 C13       -76.1547   29.5054  -70.7886 C.ar      11 UNK        -0.0753 
     14 C14       -76.9124   28.4458  -70.2825 C.ar      11 UNK        -0.0933 
     15 C15       -74.7944   29.8324  -70.1967 C.3       11 UNK         0.0166 
     16 S16       -73.5001   28.8938  -71.0588 S.3       11 UNK        -0.2615 
     17 C17       -72.0134   29.8753  -70.6625 C.3       11 UNK        -0.0865 
     18 CA        -71.7935   31.0899  -71.6164 C.3       10 UNK         0.0862 
     19 C         -70.5203   31.9096  -71.2444 C.2       10 UNK         0.5551 
     20 N         -69.7977   32.4795  -72.2011 N.am      10 UNK        -0.7319 
     21 O         -70.1983   32.0604  -70.0681 O.2       10 UNK        -0.5018 
     22 N         -71.9213   30.7558  -73.0488 N.am      10 UNK        -0.4509 
     23 C         -71.1777   29.8736  -73.7265 C.2       10 UNK         0.4899 
     24 O         -70.2291   29.2466  -73.2489 O.2       10 UNK        -0.4839 
     25 CA        -71.5366   29.6970  -75.2106 C.3       9 UNK         0.0222 
     26 CB        -70.6777   30.6244  -76.0864 C.3       9 UNK        -0.1966 
     27 N         -71.3383   28.3115  -75.6363 N.am      9 UNK        -0.4218 
     28 C         -72.1667   27.3030  -75.3375 C.2       9 UNK         0.5020 
     29 O         -73.2267   27.4370  -74.7252 O.2       9 UNK        -0.5274 
     30 CA        -71.7099   25.9047  -75.7636 C.3       8 UNK         0.0270 
     31 CB        -71.1772   25.1089  -74.5581 C.3       8 UNK        -0.1976 
     32 N         -72.8196   25.1842  -76.3855 N.am      8 UNK        -0.4313 
     33 C         -72.6722   24.2719  -77.3549 C.2       8 UNK         0.5041 
     34 O         -71.5786   23.9310  -77.8101 O.2       8 UNK        -0.5577 
     35 CA        -73.9430   23.6205  -77.9258 C.3       7 UNK         0.0284 
     36 CB        -74.4049   22.4573  -77.0335 C.3       7 UNK        -0.1958 
     37 N         -75.0443   24.5636  -78.1304 N.am      7 UNK        -0.4454 
     38 C         -75.0491   25.5423  -79.0470 C.2       7 UNK         0.5089 
     39 O         -74.1220   25.7551  -79.8293 O.2       7 UNK        -0.5125 
     40 CA        -76.3021   26.4333  -79.1119 C.3       6 UNK         0.0408 
     41 CB        -77.3861   25.7850  -79.9872 C.3       6 UNK        -0.1791 
     42 N         -76.8526   26.7291  -77.7892 N.am      6 UNK        -0.4762 
     43 C         -76.2653   27.5260  -76.8840 C.2       6 UNK         0.5007 
     44 O         -75.2370   28.1645  -77.1094 O.2       6 UNK        -0.5032 
     45 CA        -76.9387   27.6098  -75.4961 C.3       5 UNK         0.0783 
     46 C46       -78.0917   28.6480  -75.5041 C.3       11 UNK        -0.0857 
     47 S47       -77.5119   30.3442  -75.1762 S.3       11 UNK        -0.2512 
     48 C48       -78.3863   30.7423  -73.6275 C.3       11 UNK         0.0225 
     49 N         -77.3998   26.3009  -75.0149 N.am      5 UNK        -0.4615 
     50 C         -76.6248   25.2224  -74.8252 C.2       4 UNK         0.5053 
     51 O         -75.4074   25.2054  -74.9973 O.2       4 UNK        -0.5105 
     52 CA        -77.3389   23.9176  -74.4331 C.3       4 UNK         0.0263 
     53 CB        -77.6357   23.8922  -72.9286 C.3       4 UNK        -0.1981 
     54 N         -78.5761   23.7127  -75.1904 N.am      4 UNK        -0.4224 
     55 C         -78.6192   23.5349  -76.5194 C.2       3 UNK         0.4895 
     56 O         -77.6191   23.4443  -77.2306 O.2       3 UNK        -0.5091 
     57 CA        -80.0076   23.5198  -77.1762 C.3       3 UNK         0.0250 
     58 CB        -80.6885   22.1516  -77.0118 C.3       3 UNK        -0.1996 
     59 N         -80.8688   24.5841  -76.6552 N.am      3 UNK        -0.4254 
     60 C         -80.6540   25.8918  -76.8634 C.2       2 UNK         0.5004 
     61 O         -79.7399   26.3307  -77.5600 O.2       2 UNK        -0.5226 
     62 CA        -81.5954   26.8822  -76.1570 C.3       2 UNK         0.0269 
     63 CB        -82.7907   27.2243  -77.0599 C.3       2 UNK        -0.1926 
     64 N         -82.0839   26.4042  -74.8601 N.am      2 UNK        -0.4687 
     65 C         -81.3095   26.1870  -73.7864 C.2       1 UNK         0.5165 
     66 O         -80.0895   26.3588  -73.7882 O.2       1 UNK        -0.5079 
     67 H67       -84.1794   22.3065  -73.3109 H         1 UNK         0.0900 
     68 H68       -83.1706   21.8351  -74.6808 H         1 UNK         0.0900 
     69 H69       -82.8173   21.2116  -73.0675 H         1 UNK         0.0900 
     70 H70       -83.7542   24.4061  -72.6925 H         1 UNK         0.2959 
     71 H71       -82.8045   26.3507  -72.2897 H         1 UNK         0.1079 
     72 H72       -80.2386   24.8739  -71.5406 H         1 UNK         0.0837 
     73 H73       -81.6580   24.8338  -70.5529 H         1 UNK         0.0837 
     74 H74       -78.6994   26.8106  -69.2252 H         1 UNK         0.0685 
     75 H75       -78.5274   26.0200  -70.7641 H         1 UNK         0.0685 
     76 H76       -79.5551   28.6000  -72.4070 H         1 UNK         0.1434 
     77 H77       -76.0564   31.0651  -72.2656 H         1 UNK         0.1329 
     78 H78       -76.5273   27.8653  -69.4551 H         1 UNK         0.1335 
     79 H79       -74.7695   29.5967  -69.1317 H         1 UNK         0.0680 
     80 H80       -74.6016   30.9025  -70.2842 H         1 UNK         0.0680 
     81 H81       -71.1519   29.2067  -70.7019 H         1 UNK         0.1032 
     82 H82       -72.0823   30.2082  -69.6251 H         1 UNK         0.1032 
     83 H83       -72.6135   31.7834  -71.4290 H         1 UNK         0.0461 
     84 H84       -70.0561   32.3692  -73.1681 H         1 UNK         0.3453 
     85 H85       -68.9823   33.0171  -71.9521 H         1 UNK         0.3453 
     86 H86       -72.6626   31.2363  -73.5379 H         1 UNK         0.2984 
     87 H87       -72.5877   29.9567  -75.3580 H         1 UNK         0.0554 
     88 H88       -70.8348   31.6703  -75.8197 H         1 UNK         0.0847 
     89 H89       -70.9309   30.5210  -77.1418 H         1 UNK         0.0847 
     90 H90       -69.6127   30.4164  -75.9740 H         1 UNK         0.0847 
     91 H91       -70.4622   28.1030  -76.0930 H         1 UNK         0.3141 
     92 H92       -70.9028   26.0187  -76.4909 H         1 UNK         0.0743 
     93 H93       -71.9573   24.9429  -73.8137 H         1 UNK         0.0784 
     94 H94       -70.7914   24.1359  -74.8627 H         1 UNK         0.0784 
     95 H95       -70.3632   25.6428  -74.0659 H         1 UNK         0.0784 
     96 H96       -73.7487   25.4067  -76.0280 H         1 UNK         0.3213 
     97 H97       -73.6852   23.2059  -78.9029 H         1 UNK         0.0855 
     98 H98       -74.6803   22.7980  -76.0358 H         1 UNK         0.0814 
     99 H99       -73.6113   21.7182  -76.9165 H         1 UNK         0.0814 
    100 H100      -75.2653   21.9436  -77.4627 H         1 UNK         0.0814 
    101 H101      -75.8794   24.4212  -77.5705 H         1 UNK         0.3105 
    102 H102      -76.0155   27.3787  -79.5774 H         1 UNK         0.0547 
    103 H103      -77.0081   25.5819  -80.9899 H         1 UNK         0.0837 
    104 H104      -77.7314   24.8385  -79.5704 H         1 UNK         0.0837 
    105 H105      -78.2527   26.4379  -80.0926 H         1 UNK         0.0837 
    106 H106      -77.7468   26.3050  -77.5581 H         1 UNK         0.3020 
    107 H107      -76.1719   27.9332  -74.7870 H         1 UNK         0.1245 
    108 H108      -78.8320   28.3949  -74.7473 H         1 UNK         0.0781 
    109 H109      -78.6402   28.6395  -76.4480 H         1 UNK         0.0781 
    110 H110      -79.4585   30.5926  -73.7651 H         1 UNK         0.0836 
    111 H111      -78.2553   31.8041  -73.4137 H         1 UNK         0.0836 
    112 H112      -78.3862   26.2273  -74.7838 H         1 UNK         0.3022 
    113 H113      -76.6707   23.0848  -74.6601 H         1 UNK         0.0747 
    114 H114      -78.1399   22.9716  -72.6344 H         1 UNK         0.0793 
    115 H115      -76.7156   23.9655  -72.3474 H         1 UNK         0.0793 
    116 H116      -78.2688   24.7296  -72.6440 H         1 UNK         0.0793 
    117 H117      -79.4480   23.7374  -74.6669 H         1 UNK         0.3047 
    118 H118      -79.8681   23.6984  -78.2448 H         1 UNK         0.0822 
    119 H119      -81.6591   22.1283  -77.5073 H         1 UNK         0.0807 
    120 H120      -80.8386   21.8912  -75.9644 H         1 UNK         0.0807 
    121 H121      -80.0801   21.3626  -77.4558 H         1 UNK         0.0807 
    122 H122      -81.6207   24.3108  -76.0402 H         1 UNK         0.2946 
    123 H123      -81.0276   27.7985  -75.9820 H         1 UNK         0.1144 
    124 H124      -82.4532   27.6043  -78.0254 H         1 UNK         0.0793 
    125 H125      -83.4185   27.9953  -76.6127 H         1 UNK         0.0793 
    126 H126      -83.4154   26.3514  -77.2537 H         1 UNK         0.0793 
    127 H127      -83.0732   26.2130  -74.7881 H         1 UNK         0.2896 
@<TRIPOS>BOND
     1    1    2 1    
     2    1   67 1    
     3    1   68 1    
     4    1   69 1    
     5    2    3 2    
     6    2    4 am   BACKBONE|DICT|INTERRES
     7    4    5 1    
     8    4   70 1    
     9    5    6 1    
    10    5   65 1    
    11    5   71 1    
    12    6    7 1    
    13    6   72 1    
    14    6   73 1    
    15    7    8 1    
    16    8    9 1    
    17    8   74 1    
    18    8   75 1    
    19    9   10 ar   
    20    9   14 ar   
    21   10   11 ar   
    22   10   76 1    
    23   11   12 ar   
    24   11   48 1    
    25   12   13 ar   
    26   12   77 1    
    27   13   14 ar   
    28   13   15 1    
    29   14   78 1    
    30   15   16 1    
    31   15   79 1    
    32   15   80 1    
    33   16   17 1    
    34   17   18 1    
    35   17   81 1    
    36   17   82 1    
    37   18   19 1    
    38   18   22 1    
    39   18   83 1    
    40   19   20 am   BACKBONE|DICT|INTERRES
    41   19   21 2    
    42   20   84 1    
    43   20   85 1    
    44   22   23 am   BACKBONE|DICT|INTERRES
    45   22   86 1    
    46   23   24 2    
    47   23   25 1    
    48   25   26 1    
    49   25   27 1    
    50   25   87 1    
    51   26   88 1    
    52   26   89 1    
    53   26   90 1    
    54   27   28 am   BACKBONE|DICT|INTERRES
    55   27   91 1    
    56   28   29 2    
    57   28   30 1    
    58   30   31 1    
    59   30   32 1    
    60   30   92 1    
    61   31   93 1    
    62   31   94 1    
    63   31   95 1    
    64   32   33 am   BACKBONE|DICT|INTERRES
    65   32   96 1    
    66   33   34 2    
    67   33   35 1    
    68   35   36 1    
    69   35   37 1    
    70   35   97 1    
    71   36   98 1    
    72   36   99 1    
    73   36  100 1    
    74   37   38 am   BACKBONE|DICT|INTERRES
    75   37  101 1    
    76   38   39 2    
    77   38   40 1    
    78   40   41 1    
    79   40   42 1    
    80   40  102 1    
    81   41  103 1    
    82   41  104 1    
    83   41  105 1    
    84   42   43 am   BACKBONE|DICT|INTERRES
    85   42  106 1    
    86   43   44 2    
    87   43   45 1    
    88   45   46 1    
    89   45   49 1    
    90   45  107 1    
    91   46   47 1    
    92   46  108 1    
    93   46  109 1    
    94   47   48 1    
    95   48  110 1    
    96   48  111 1    
    97   49   50 am   BACKBONE|DICT|INTERRES
    98   49  112 1    
    99   50   51 2    
   100   50   52 1    
   101   52   53 1    
   102   52   54 1    
   103   52  113 1    
   104   53  114 1    
   105   53  115 1    
   106   53  116 1    
   107   54   55 am   BACKBONE|DICT|INTERRES
   108   54  117 1    
   109   55   56 2    
   110   55   57 1    
   111   57   58 1    
   112   57   59 1    
   113   57  118 1    
   114   58  119 1    
   115   58  120 1    
   116   58  121 1    
   117   59   60 am   BACKBONE|DICT|INTERRES
   118   59  122 1    
   119   60   61 2    
   120   60   62 1    
   121   62   63 1    
   122   62   64 1    
   123   62  123 1    
   124   63  124 1    
   125   63  125 1    
   126   63  126 1    
   127   64   65 am   BACKBONE|DICT|INTERRES
   128   64  127 1    
   129   65   66 2    
@<TRIPOS>SUBSTRUCTURE
     1 UNK         1 GROUP             0       ****    0 ROOT    
