@<TRIPOS>MOLECULE
3R135
127   129    1
SMALL
USER_CHARGES


@<TRIPOS>ATOM
      1 CA        -80.9823   24.7631  -72.9580 C.3       0 UNK        -0.1998 
      2 C         -81.4735   25.9215  -73.8126 C.2       0 UNK         0.4909 
      3 O         -82.6120   25.9028  -74.2822 O.2       0 UNK        -0.5240 
      4 N         -80.6212   26.9307  -74.0272 N.am      1 UNK        -0.4739 
      5 CA        -80.8804   28.1503  -74.8043 C.3       1 UNK         0.0864 
      6 C6        -79.9750   29.3346  -74.3500 C.3       11 UNK        -0.0881 
      7 S7        -78.2457   28.8757  -73.9511 S.3       11 UNK        -0.2682 
      8 C8        -78.0884   29.5583  -72.2691 C.3       11 UNK         0.0289 
      9 C9        -76.9437   28.9152  -71.5025 C.ar      11 UNK        -0.0687 
     10 C10       -77.1430   27.6847  -70.8731 C.ar      11 UNK        -0.0823 
     11 C11       -76.1099   27.0811  -70.1529 C.ar      11 UNK        -0.0830 
     12 C12       -74.8786   27.7303  -70.0398 C.ar      11 UNK        -0.1021 
     13 C13       -74.6668   28.9708  -70.6470 C.ar      11 UNK        -0.0753 
     14 C14       -75.7030   29.5516  -71.3924 C.ar      11 UNK        -0.0933 
     15 C15       -73.2991   29.6337  -70.5125 C.3       11 UNK         0.0166 
     16 S16       -73.3766   31.4469  -70.3124 S.3       11 UNK        -0.2615 
     17 C17       -71.9971   31.9672  -71.3906 C.3       11 UNK        -0.0865 
     18 CA        -72.4506   32.2799  -72.8421 C.3       10 UNK         0.0862 
     19 C         -71.2522   32.7908  -73.6957 C.2       10 UNK         0.5551 
     20 N         -70.8052   32.0740  -74.7211 N.am      10 UNK        -0.7319 
     21 O         -70.7198   33.8629  -73.4194 O.2       10 UNK        -0.5018 
     22 N         -73.1787   31.1497  -73.4391 N.am      10 UNK        -0.4509 
     23 C         -73.9887   31.2218  -74.4998 C.2       10 UNK         0.4899 
     24 O         -74.2874   32.2815  -75.0524 O.2       10 UNK        -0.4839 
     25 CA        -74.5658   29.8866  -75.0232 C.3       9 UNK         0.0222 
     26 CB        -74.9076   29.9568  -76.5252 C.3       9 UNK        -0.1966 
     27 N         -73.7569   28.6872  -74.7307 N.am      9 UNK        -0.4218 
     28 C         -72.4539   28.4965  -75.0051 C.2       9 UNK         0.5020 
     29 O         -71.7254   29.3434  -75.5244 O.2       9 UNK        -0.5274 
     30 CA        -71.8597   27.1351  -74.6161 C.3       8 UNK         0.0270 
     31 CB        -71.9122   26.9066  -73.0942 C.3       8 UNK        -0.1976 
     32 N         -72.5695   26.0625  -75.3101 N.am      8 UNK        -0.4313 
     33 C         -72.2235   25.5785  -76.5135 C.2       8 UNK         0.5041 
     34 O         -71.1881   25.8884  -77.1046 O.2       8 UNK        -0.5577 
     35 CA        -73.1975   24.5911  -77.1898 C.3       7 UNK         0.0284 
     36 CB        -72.7944   23.1408  -76.8807 C.3       7 UNK        -0.1958 
     37 N         -74.5926   24.8026  -76.7960 N.am      7 UNK        -0.4454 
     38 C         -75.2838   25.9265  -77.0412 C.2       7 UNK         0.5089 
     39 O         -74.8886   26.8005  -77.8113 O.2       7 UNK        -0.5125 
     40 CA        -76.6174   26.1383  -76.2933 C.3       6 UNK         0.0408 
     41 CB        -77.7836   26.0118  -77.2787 C.3       6 UNK        -0.1791 
     42 N         -76.8442   25.2267  -75.1652 N.am      6 UNK        -0.4762 
     43 C         -76.0518   25.0856  -74.0896 C.2       6 UNK         0.5007 
     44 O         -75.0914   25.8244  -73.8636 O.2       6 UNK        -0.5032 
     45 CA        -76.3048   23.8509  -73.1872 C.3       5 UNK         0.0783 
     46 C46       -76.9090   24.2268  -71.8097 C.3       11 UNK        -0.0857 
     47 S47       -75.6351   24.3860  -70.5159 S.3       11 UNK        -0.2512 
     48 C48       -76.3158   25.7277  -69.4938 C.3       11 UNK         0.0225 
     49 N         -77.1097   22.8098  -73.8390 N.am      5 UNK        -0.4615 
     50 C         -76.7822   22.1276  -74.9440 C.2       4 UNK         0.5053 
     51 O         -75.7249   22.2838  -75.5548 O.2       4 UNK        -0.5105 
     52 CA        -77.8357   21.1444  -75.4855 C.3       4 UNK         0.0263 
     53 CB        -78.7312   20.5389  -74.3806 C.3       4 UNK        -0.1981 
     54 N         -78.6651   21.7313  -76.5472 N.am      4 UNK        -0.4224 
     55 C         -79.4050   22.8491  -76.4845 C.2       3 UNK         0.4895 
     56 O         -79.4321   23.6128  -75.5153 O.2       3 UNK        -0.5091 
     57 CA        -80.2689   23.1594  -77.7135 C.3       3 UNK         0.0250 
     58 CB        -81.3808   22.1074  -77.8944 C.3       3 UNK        -0.1996 
     59 N         -80.8720   24.4826  -77.5619 N.am      3 UNK        -0.4254 
     60 C         -81.2638   25.2788  -78.5636 C.2       2 UNK         0.5004 
     61 O         -81.1426   24.9811  -79.7527 O.2       2 UNK        -0.5226 
     62 CA        -81.9143   26.6250  -78.1996 C.3       2 UNK         0.0269 
     63 CB        -83.4217   26.5818  -78.5031 C.3       2 UNK        -0.1926 
     64 N         -81.7353   26.9910  -76.7909 N.am      2 UNK        -0.4687 
     65 C         -80.8567   27.8898  -76.3297 C.2       1 UNK         0.5165 
     66 O         -80.0645   28.4921  -77.0560 O.2       1 UNK        -0.5079 
     67 H67       -79.9027   24.7962  -72.8159 H         1 UNK         0.0900 
     68 H68       -81.2274   23.8146  -73.4354 H         1 UNK         0.0900 
     69 H69       -81.4607   24.7872  -71.9796 H         1 UNK         0.0900 
     70 H70       -79.6854   26.8810  -73.6490 H         1 UNK         0.2959 
     71 H71       -81.9081   28.4564  -74.5938 H         1 UNK         0.1079 
     72 H72       -80.4279   29.7850  -73.4661 H         1 UNK         0.0837 
     73 H73       -79.9629   30.1405  -75.0863 H         1 UNK         0.0837 
     74 H74       -79.0138   29.3969  -71.7141 H         1 UNK         0.0685 
     75 H75       -77.9514   30.6389  -72.3320 H         1 UNK         0.0685 
     76 H76       -78.1045   27.1966  -70.9515 H         1 UNK         0.1434 
     77 H77       -74.0800   27.2599  -69.4821 H         1 UNK         0.1329 
     78 H78       -75.5518   30.5056  -71.8772 H         1 UNK         0.1335 
     79 H79       -72.7609   29.2281  -69.6543 H         1 UNK         0.0680 
     80 H80       -72.7108   29.3673  -71.3892 H         1 UNK         0.0680 
     81 H81       -71.5510   32.8561  -70.9401 H         1 UNK         0.1032 
     82 H82       -71.2130   31.2077  -71.3805 H         1 UNK         0.1032 
     83 H83       -73.1523   33.1145  -72.7860 H         1 UNK         0.0461 
     84 H84       -70.0309   32.4214  -75.2638 H         1 UNK         0.3453 
     85 H85       -71.2279   31.1826  -74.9610 H         1 UNK         0.3453 
     86 H86       -72.9839   30.2404  -73.0528 H         1 UNK         0.2984 
     87 H87       -75.5022   29.7505  -74.4835 H         1 UNK         0.0554 
     88 H88       -75.4805   29.0873  -76.8385 H         1 UNK         0.0847 
     89 H89       -74.0106   30.0130  -77.1425 H         1 UNK         0.0847 
     90 H90       -75.5224   30.8269  -76.7583 H         1 UNK         0.0847 
     91 H91       -74.2575   27.9261  -74.2853 H         1 UNK         0.3141 
     92 H92       -70.8083   27.1299  -74.9120 H         1 UNK         0.0743 
     93 H93       -71.3481   27.6771  -72.5677 H         1 UNK         0.0784 
     94 H94       -72.9300   26.9190  -72.7023 H         1 UNK         0.0784 
     95 H95       -71.4691   25.9472  -72.8269 H         1 UNK         0.0784 
     96 H96       -73.4561   25.7775  -74.9031 H         1 UNK         0.3213 
     97 H97       -73.1272   24.7457  -78.2686 H         1 UNK         0.0855 
     98 H98       -71.7657   22.9471  -77.1878 H         1 UNK         0.0814 
     99 H99       -73.4300   22.4309  -77.4106 H         1 UNK         0.0814 
    100 H100      -72.8649   22.9209  -75.8146 H         1 UNK         0.0814 
    101 H101      -75.0166   24.0824  -76.2195 H         1 UNK         0.3105 
    102 H102      -76.6127   27.1524  -75.8907 H         1 UNK         0.0547 
    103 H103      -77.7664   25.0589  -77.8080 H         1 UNK         0.0837 
    104 H104      -78.7363   26.0927  -76.7619 H         1 UNK         0.0837 
    105 H105      -77.7511   26.8041  -78.0278 H         1 UNK         0.0837 
    106 H106      -77.6247   24.5845  -75.2588 H         1 UNK         0.3020 
    107 H107      -75.3226   23.3993  -73.0289 H         1 UNK         0.1245 
    108 H108      -77.5913   23.4507  -71.4586 H         1 UNK         0.0781 
    109 H109      -77.5155   25.1296  -71.8753 H         1 UNK         0.0781 
    110 H110      -75.8203   25.7165  -68.5218 H         1 UNK         0.0836 
    111 H111      -77.3733   25.5440  -69.2969 H         1 UNK         0.0836 
    112 H112      -78.0279   22.6478  -73.4523 H         1 UNK         0.3022 
    113 H113      -77.2784   20.3243  -75.9411 H         1 UNK         0.0747 
    114 H114      -79.3441   19.7302  -74.7789 H         1 UNK         0.0793 
    115 H115      -78.1309   20.1155  -73.5739 H         1 UNK         0.0793 
    116 H116      -79.4084   21.2722  -73.9413 H         1 UNK         0.0793 
    117 H117      -78.6842   21.2046  -77.4096 H         1 UNK         0.3047 
    118 H118      -79.6155   23.1591  -78.5887 H         1 UNK         0.0822 
    119 H119      -80.9684   21.1077  -78.0341 H         1 UNK         0.0807 
    120 H120      -81.9933   22.3235  -78.7700 H         1 UNK         0.0807 
    121 H121      -82.0416   22.0706  -77.0272 H         1 UNK         0.0807 
    122 H122      -80.9353   24.8090  -76.6062 H         1 UNK         0.2946 
    123 H123      -81.4601   27.3817  -78.8436 H         1 UNK         0.1144 
    124 H124      -83.6047   26.3361  -79.5502 H         1 UNK         0.0793 
    125 H125      -83.8917   27.5467  -78.3123 H         1 UNK         0.0793 
    126 H126      -83.9342   25.8331  -77.8975 H         1 UNK         0.0793 
    127 H127      -82.3258   26.5229  -76.1079 H         1 UNK         0.2896 
@<TRIPOS>BOND
     1    1    2 1    
     2    1   67 1    
     3    1   68 1    
     4    1   69 1    
     5    2    3 2    
     6    2    4 am   BACKBONE|DICT|INTERRES
     7    4    5 1    
     8    4   70 1    
     9    5    6 1    
    10    5   65 1    
    11    5   71 1    
    12    6    7 1    
    13    6   72 1    
    14    6   73 1    
    15    7    8 1    
    16    8    9 1    
    17    8   74 1    
    18    8   75 1    
    19    9   10 ar   
    20    9   14 ar   
    21   10   11 ar   
    22   10   76 1    
    23   11   12 ar   
    24   11   48 1    
    25   12   13 ar   
    26   12   77 1    
    27   13   14 ar   
    28   13   15 1    
    29   14   78 1    
    30   15   16 1    
    31   15   79 1    
    32   15   80 1    
    33   16   17 1    
    34   17   18 1    
    35   17   81 1    
    36   17   82 1    
    37   18   19 1    
    38   18   22 1    
    39   18   83 1    
    40   19   20 am   BACKBONE|DICT|INTERRES
    41   19   21 2    
    42   20   84 1    
    43   20   85 1    
    44   22   23 am   BACKBONE|DICT|INTERRES
    45   22   86 1    
    46   23   24 2    
    47   23   25 1    
    48   25   26 1    
    49   25   27 1    
    50   25   87 1    
    51   26   88 1    
    52   26   89 1    
    53   26   90 1    
    54   27   28 am   BACKBONE|DICT|INTERRES
    55   27   91 1    
    56   28   29 2    
    57   28   30 1    
    58   30   31 1    
    59   30   32 1    
    60   30   92 1    
    61   31   93 1    
    62   31   94 1    
    63   31   95 1    
    64   32   33 am   BACKBONE|DICT|INTERRES
    65   32   96 1    
    66   33   34 2    
    67   33   35 1    
    68   35   36 1    
    69   35   37 1    
    70   35   97 1    
    71   36   98 1    
    72   36   99 1    
    73   36  100 1    
    74   37   38 am   BACKBONE|DICT|INTERRES
    75   37  101 1    
    76   38   39 2    
    77   38   40 1    
    78   40   41 1    
    79   40   42 1    
    80   40  102 1    
    81   41  103 1    
    82   41  104 1    
    83   41  105 1    
    84   42   43 am   BACKBONE|DICT|INTERRES
    85   42  106 1    
    86   43   44 2    
    87   43   45 1    
    88   45   46 1    
    89   45   49 1    
    90   45  107 1    
    91   46   47 1    
    92   46  108 1    
    93   46  109 1    
    94   47   48 1    
    95   48  110 1    
    96   48  111 1    
    97   49   50 am   BACKBONE|DICT|INTERRES
    98   49  112 1    
    99   50   51 2    
   100   50   52 1    
   101   52   53 1    
   102   52   54 1    
   103   52  113 1    
   104   53  114 1    
   105   53  115 1    
   106   53  116 1    
   107   54   55 am   BACKBONE|DICT|INTERRES
   108   54  117 1    
   109   55   56 2    
   110   55   57 1    
   111   57   58 1    
   112   57   59 1    
   113   57  118 1    
   114   58  119 1    
   115   58  120 1    
   116   58  121 1    
   117   59   60 am   BACKBONE|DICT|INTERRES
   118   59  122 1    
   119   60   61 2    
   120   60   62 1    
   121   62   63 1    
   122   62   64 1    
   123   62  123 1    
   124   63  124 1    
   125   63  125 1    
   126   63  126 1    
   127   64   65 am   BACKBONE|DICT|INTERRES
   128   64  127 1    
   129   65   66 2    
@<TRIPOS>SUBSTRUCTURE
     1 UNK         1 GROUP             0       ****    0 ROOT    
