@<TRIPOS>MOLECULE
3R135
127   129    1
SMALL
USER_CHARGES


@<TRIPOS>ATOM
      1 CA        -82.3413   27.2475  -69.9114 C.3       0 UNK        -0.1998 
      2 C         -83.0288   27.3471  -71.2650 C.2       0 UNK         0.4909 
      3 O         -84.1784   26.9286  -71.4018 O.2       0 UNK        -0.5240 
      4 N         -82.3316   27.8965  -72.2680 N.am      1 UNK        -0.4739 
      5 CA        -82.8170   28.0512  -73.6461 C.3       1 UNK         0.0864 
      6 C6        -82.0665   29.1896  -74.3879 C.3       11 UNK        -0.0881 
      7 S7        -80.2788   28.8824  -74.6040 S.3       11 UNK        -0.2682 
      8 C8        -79.5415   29.8836  -73.2773 C.3       11 UNK         0.0289 
      9 C9        -78.2545   29.2338  -72.7981 C.ar      11 UNK        -0.0687 
     10 C10       -78.3028   28.2363  -71.8208 C.ar      11 UNK        -0.0823 
     11 C11       -77.1372   27.5865  -71.4093 C.ar      11 UNK        -0.0830 
     12 C12       -75.9133   27.9526  -71.9761 C.ar      11 UNK        -0.1021 
     13 C13       -75.8490   28.9491  -72.9560 C.ar      11 UNK        -0.0753 
     14 C14       -77.0243   29.5930  -73.3570 C.ar      11 UNK        -0.0933 
     15 C15       -74.5281   29.2664  -73.6441 C.3       11 UNK         0.0166 
     16 S16       -73.1867   29.6417  -72.4674 S.3       11 UNK        -0.2615 
     17 C17       -72.8764   31.4225  -72.7435 C.3       11 UNK        -0.0865 
     18 CA        -72.3462   31.7955  -74.1632 C.3       10 UNK         0.0862 
     19 C         -71.9726   33.3043  -74.2805 C.2       10 UNK         0.5551 
     20 N         -70.9824   33.6784  -75.0815 N.am      10 UNK        -0.7319 
     21 O         -72.6088   34.1542  -73.6615 O.2       10 UNK        -0.5018 
     22 N         -71.3380   30.8572  -74.6869 N.am      10 UNK        -0.4509 
     23 C         -70.1230   30.6059  -74.1894 C.2       10 UNK         0.4899 
     24 O         -69.6474   31.1757  -73.2059 O.2       10 UNK        -0.4839 
     25 CA        -69.3155   29.5148  -74.9246 C.3       9 UNK         0.0222 
     26 CB        -67.8450   29.4651  -74.4686 C.3       9 UNK        -0.1966 
     27 N         -69.9034   28.1776  -74.7770 N.am      9 UNK        -0.4218 
     28 C         -71.0329   27.7430  -75.3544 C.2       9 UNK         0.5020 
     29 O         -71.7312   28.4435  -76.0928 O.2       9 UNK        -0.5274 
     30 CA        -71.4395   26.2894  -75.0364 C.3       8 UNK         0.0270 
     31 CB        -71.8367   26.1336  -73.5577 C.3       8 UNK        -0.1976 
     32 N         -72.5455   25.8203  -75.8778 N.am      8 UNK        -0.4313 
     33 C         -72.4377   25.5188  -77.1813 C.2       8 UNK         0.5041 
     34 O         -71.3635   25.5100  -77.7862 O.2       8 UNK        -0.5577 
     35 CA        -73.7200   25.1423  -77.9547 C.3       7 UNK         0.0284 
     36 CB        -73.7653   23.6278  -78.2177 C.3       7 UNK        -0.1958 
     37 N         -74.9621   25.5356  -77.2894 N.am      7 UNK        -0.4454 
     38 C         -75.3846   26.7917  -77.0954 C.2       7 UNK         0.5089 
     39 O         -74.8249   27.7825  -77.5635 O.2       7 UNK        -0.5125 
     40 CA        -76.6426   26.9796  -76.2243 C.3       6 UNK         0.0408 
     41 CB        -77.8548   27.2625  -77.1236 C.3       6 UNK        -0.1791 
     42 N         -76.9561   25.8537  -75.3323 N.am      6 UNK        -0.4762 
     43 C         -76.1418   25.3299  -74.4007 C.2       6 UNK         0.5007 
     44 O         -74.9871   25.7112  -74.2128 O.2       6 UNK        -0.5032 
     45 CA        -76.6727   24.1159  -73.6163 C.3       5 UNK         0.0783 
     46 C46       -77.5549   24.5184  -72.4070 C.3       11 UNK        -0.0857 
     47 S47       -76.5355   24.8937  -70.9389 S.3       11 UNK        -0.2512 
     48 C48       -77.2113   26.4850  -70.3597 C.3       11 UNK         0.0225 
     49 N         -77.3648   23.1967  -74.5218 N.am      5 UNK        -0.4615 
     50 C         -76.7457   22.2699  -75.2669 C.2       4 UNK         0.5053 
     51 O         -75.5367   22.0462  -75.2136 O.2       4 UNK        -0.5105 
     52 CA        -77.6115   21.4561  -76.2448 C.3       4 UNK         0.0263 
     53 CB        -78.1052   20.1633  -75.5758 C.3       4 UNK        -0.1981 
     54 N         -78.7601   22.2044  -76.7584 N.am      4 UNK        -0.4224 
     55 C         -78.6758   23.2605  -77.5799 C.2       3 UNK         0.4895 
     56 O         -77.6185   23.6860  -78.0453 O.2       3 UNK        -0.5091 
     57 CA        -79.9941   23.9851  -77.9080 C.3       3 UNK         0.0250 
     58 CB        -80.6339   23.3868  -79.1709 C.3       3 UNK        -0.1996 
     59 N         -80.9746   23.9812  -76.8138 N.am      3 UNK        -0.4254 
     60 C         -80.7674   24.4938  -75.5926 C.2       2 UNK         0.5004 
     61 O         -79.6919   24.9677  -75.2182 O.2       2 UNK        -0.5226 
     62 CA        -81.9309   24.4075  -74.5975 C.3       2 UNK         0.0269 
     63 CB        -81.6439   23.3344  -73.5341 C.3       2 UNK        -0.1926 
     64 N         -82.1168   25.6973  -73.9367 N.am      2 UNK        -0.4687 
     65 C         -82.8102   26.7257  -74.4465 C.2       1 UNK         0.5165 
     66 O         -83.4366   26.6588  -75.5059 O.2       1 UNK        -0.5079 
     67 H67       -81.3601   27.7213  -69.9139 H         1 UNK         0.0900 
     68 H68       -82.2140   26.2021  -69.6316 H         1 UNK         0.0900 
     69 H69       -82.9476   27.7330  -69.1470 H         1 UNK         0.0900 
     70 H70       -81.3907   28.2214  -72.1070 H         1 UNK         0.2959 
     71 H71       -83.8663   28.3506  -73.5890 H         1 UNK         0.1079 
     72 H72       -82.5027   29.3416  -75.3772 H         1 UNK         0.0837 
     73 H73       -82.2121   30.1352  -73.8633 H         1 UNK         0.0837 
     74 H74       -79.3522   30.8925  -73.6471 H         1 UNK         0.0685 
     75 H75       -80.2356   29.9857  -72.4422 H         1 UNK         0.0685 
     76 H76       -79.2531   27.9505  -71.3945 H         1 UNK         0.1434 
     77 H77       -75.0109   27.4351  -71.6801 H         1 UNK         0.1329 
     78 H78       -76.9901   30.3474  -74.1310 H         1 UNK         0.1335 
     79 H79       -74.2329   28.4019  -74.2401 H         1 UNK         0.0680 
     80 H80       -74.6554   30.0843  -74.3517 H         1 UNK         0.0680 
     81 H81       -72.1582   31.7434  -71.9868 H         1 UNK         0.1032 
     82 H82       -73.7978   31.9669  -72.5291 H         1 UNK         0.1032 
     83 H83       -73.1835   31.6928  -74.8521 H         1 UNK         0.0461 
     84 H84       -70.4620   32.9898  -75.6007 H         1 UNK         0.3453 
     85 H85       -70.7516   34.6561  -75.1619 H         1 UNK         0.3453 
     86 H86       -71.6455   30.2613  -75.4508 H         1 UNK         0.2984 
     87 H87       -69.3199   29.7715  -75.9861 H         1 UNK         0.0554 
     88 H88       -67.2698   28.7497  -75.0566 H         1 UNK         0.0847 
     89 H89       -67.7552   29.1864  -73.4178 H         1 UNK         0.0847 
     90 H90       -67.3660   30.4378  -74.5890 H         1 UNK         0.0847 
     91 H91       -69.4123   27.5462  -74.1606 H         1 UNK         0.3141 
     92 H92       -70.5741   25.6517  -75.2288 H         1 UNK         0.0743 
     93 H93       -72.6814   26.7711  -73.2978 H         1 UNK         0.0784 
     94 H94       -72.1178   25.1052  -73.3297 H         1 UNK         0.0784 
     95 H95       -71.0152   26.3972  -72.8909 H         1 UNK         0.0784 
     96 H96       -73.4664   25.8191  -75.4469 H         1 UNK         0.3213 
     97 H97       -73.6800   25.6581  -78.9163 H         1 UNK         0.0855 
     98 H98       -73.8108   23.0594  -77.2876 H         1 UNK         0.0814 
     99 H99       -72.8776   23.2978  -78.7590 H         1 UNK         0.0814 
    100 H100      -74.6323   23.3545  -78.8200 H         1 UNK         0.0814 
    101 H101      -75.5284   24.7921  -76.9046 H         1 UNK         0.3105 
    102 H102      -76.4766   27.8506  -75.5901 H         1 UNK         0.0547 
    103 H103      -77.7350   28.2112  -77.6478 H         1 UNK         0.0837 
    104 H104      -77.9771   26.4884  -77.8804 H         1 UNK         0.0837 
    105 H105      -78.7793   27.3212  -76.5510 H         1 UNK         0.0837 
    106 H106      -77.9055   25.4906  -75.3904 H         1 UNK         0.3020 
    107 H107      -75.7967   23.5904  -73.2270 H         1 UNK         0.1245 
    108 H108      -78.2056   23.6889  -72.1261 H         1 UNK         0.0781 
    109 H109      -78.2230   25.3461  -72.6526 H         1 UNK         0.0781 
    110 H110      -76.6536   26.8026  -69.4777 H         1 UNK         0.0836 
    111 H111      -78.2393   26.3266  -70.0302 H         1 UNK         0.0836 
    112 H112      -78.3477   23.3797  -74.6772 H         1 UNK         0.3022 
    113 H113      -76.9803   21.1835  -77.0936 H         1 UNK         0.0747 
    114 H114      -78.6544   19.5368  -76.2789 H         1 UNK         0.0793 
    115 H115      -77.2666   19.5720  -75.2049 H         1 UNK         0.0793 
    116 H116      -78.7584   20.3701  -74.7269 H         1 UNK         0.0793 
    117 H117      -79.6739   21.9200  -76.4375 H         1 UNK         0.3047 
    118 H118      -79.7506   25.0277  -78.1166 H         1 UNK         0.0822 
    119 H119      -81.5116   23.9552  -79.4796 H         1 UNK         0.0807 
    120 H120      -80.9398   22.3509  -79.0187 H         1 UNK         0.0807 
    121 H121      -79.9329   23.3999  -80.0069 H         1 UNK         0.0807 
    122 H122      -81.8838   23.5984  -77.0313 H         1 UNK         0.2946 
    123 H123      -82.8478   24.1382  -75.1272 H         1 UNK         0.1144 
    124 H124      -82.4667   23.2526  -72.8236 H         1 UNK         0.0793 
    125 H125      -80.7363   23.5539  -72.9700 H         1 UNK         0.0793 
    126 H126      -81.5143   22.3531  -73.9924 H         1 UNK         0.0793 
    127 H127      -81.5912   25.8545  -73.0902 H         1 UNK         0.2896 
@<TRIPOS>BOND
     1    1    2 1    
     2    1   67 1    
     3    1   68 1    
     4    1   69 1    
     5    2    3 2    
     6    2    4 am   BACKBONE|DICT|INTERRES
     7    4    5 1    
     8    4   70 1    
     9    5    6 1    
    10    5   65 1    
    11    5   71 1    
    12    6    7 1    
    13    6   72 1    
    14    6   73 1    
    15    7    8 1    
    16    8    9 1    
    17    8   74 1    
    18    8   75 1    
    19    9   10 ar   
    20    9   14 ar   
    21   10   11 ar   
    22   10   76 1    
    23   11   12 ar   
    24   11   48 1    
    25   12   13 ar   
    26   12   77 1    
    27   13   14 ar   
    28   13   15 1    
    29   14   78 1    
    30   15   16 1    
    31   15   79 1    
    32   15   80 1    
    33   16   17 1    
    34   17   18 1    
    35   17   81 1    
    36   17   82 1    
    37   18   19 1    
    38   18   22 1    
    39   18   83 1    
    40   19   20 am   BACKBONE|DICT|INTERRES
    41   19   21 2    
    42   20   84 1    
    43   20   85 1    
    44   22   23 am   BACKBONE|DICT|INTERRES
    45   22   86 1    
    46   23   24 2    
    47   23   25 1    
    48   25   26 1    
    49   25   27 1    
    50   25   87 1    
    51   26   88 1    
    52   26   89 1    
    53   26   90 1    
    54   27   28 am   BACKBONE|DICT|INTERRES
    55   27   91 1    
    56   28   29 2    
    57   28   30 1    
    58   30   31 1    
    59   30   32 1    
    60   30   92 1    
    61   31   93 1    
    62   31   94 1    
    63   31   95 1    
    64   32   33 am   BACKBONE|DICT|INTERRES
    65   32   96 1    
    66   33   34 2    
    67   33   35 1    
    68   35   36 1    
    69   35   37 1    
    70   35   97 1    
    71   36   98 1    
    72   36   99 1    
    73   36  100 1    
    74   37   38 am   BACKBONE|DICT|INTERRES
    75   37  101 1    
    76   38   39 2    
    77   38   40 1    
    78   40   41 1    
    79   40   42 1    
    80   40  102 1    
    81   41  103 1    
    82   41  104 1    
    83   41  105 1    
    84   42   43 am   BACKBONE|DICT|INTERRES
    85   42  106 1    
    86   43   44 2    
    87   43   45 1    
    88   45   46 1    
    89   45   49 1    
    90   45  107 1    
    91   46   47 1    
    92   46  108 1    
    93   46  109 1    
    94   47   48 1    
    95   48  110 1    
    96   48  111 1    
    97   49   50 am   BACKBONE|DICT|INTERRES
    98   49  112 1    
    99   50   51 2    
   100   50   52 1    
   101   52   53 1    
   102   52   54 1    
   103   52  113 1    
   104   53  114 1    
   105   53  115 1    
   106   53  116 1    
   107   54   55 am   BACKBONE|DICT|INTERRES
   108   54  117 1    
   109   55   56 2    
   110   55   57 1    
   111   57   58 1    
   112   57   59 1    
   113   57  118 1    
   114   58  119 1    
   115   58  120 1    
   116   58  121 1    
   117   59   60 am   BACKBONE|DICT|INTERRES
   118   59  122 1    
   119   60   61 2    
   120   60   62 1    
   121   62   63 1    
   122   62   64 1    
   123   62  123 1    
   124   63  124 1    
   125   63  125 1    
   126   63  126 1    
   127   64   65 am   BACKBONE|DICT|INTERRES
   128   64  127 1    
   129   65   66 2    
@<TRIPOS>SUBSTRUCTURE
     1 UNK         1 GROUP             0       ****    0 ROOT    
