@<TRIPOS>MOLECULE
3R135
127   129    1
SMALL
USER_CHARGES


@<TRIPOS>ATOM
      1 CA        -78.0075   32.3335  -74.6892 C.3       0 UNK        -0.1998 
      2 C         -78.4726   30.9874  -74.1548 C.2       0 UNK         0.4909 
      3 O         -77.9436   30.5161  -73.1502 O.2       0 UNK        -0.5240 
      4 N         -79.4557   30.3698  -74.8168 N.am      1 UNK        -0.4739 
      5 CA        -79.9547   29.0278  -74.5290 C.3       1 UNK         0.0864 
      6 C6        -80.8918   28.9621  -73.2898 C.3       11 UNK        -0.0881 
      7 S7        -81.2921   27.2397  -72.8080 S.3       11 UNK        -0.2682 
      8 C8        -80.7384   27.1459  -71.0754 C.3       11 UNK         0.0289 
      9 C9        -79.2898   26.6927  -70.9279 C.ar      11 UNK        -0.0687 
     10 C10       -78.9922   25.4291  -70.4030 C.ar      11 UNK        -0.0823 
     11 C11       -77.6666   25.0533  -70.1549 C.ar      11 UNK        -0.0830 
     12 C12       -76.6333   25.9430  -70.4624 C.ar      11 UNK        -0.1021 
     13 C13       -76.9154   27.1931  -71.0182 C.ar      11 UNK        -0.0753 
     14 C14       -78.2438   27.5636  -71.2423 C.ar      11 UNK        -0.0933 
     15 C15       -75.7886   28.1615  -71.3367 C.3       11 UNK         0.0166 
     16 S16       -74.7885   27.5774  -72.7356 S.3       11 UNK        -0.2615 
     17 C17       -73.8751   29.1028  -73.1511 C.3       11 UNK        -0.0865 
     18 CA        -74.4300   29.7903  -74.4250 C.3       10 UNK         0.0862 
     19 C         -73.7816   31.1914  -74.6384 C.2       10 UNK         0.5551 
     20 N         -73.1126   31.4684  -75.7520 N.am      10 UNK        -0.7319 
     21 O         -73.9010   32.0557  -73.7736 O.2       10 UNK        -0.5018 
     22 N         -74.3589   28.8974  -75.5904 N.am      10 UNK        -0.4509 
     23 C         -75.0683   29.0443  -76.7146 C.2       10 UNK         0.4899 
     24 O         -75.9345   29.9061  -76.8719 O.2       10 UNK        -0.4839 
     25 CA        -74.7289   28.0657  -77.8570 C.3       9 UNK         0.0222 
     26 CB        -75.3099   28.5038  -79.2180 C.3       9 UNK        -0.1966 
     27 N         -73.2890   27.7933  -77.9636 N.am      9 UNK        -0.4218 
     28 C         -72.3067   28.6831  -78.1770 C.2       9 UNK         0.5020 
     29 O         -72.4951   29.8907  -78.3387 O.2       9 UNK        -0.5274 
     30 CA        -70.8720   28.1155  -78.1809 C.3       8 UNK         0.0270 
     31 CB        -69.7886   29.2157  -78.2121 C.3       8 UNK        -0.1976 
     32 N         -70.6292   27.1753  -77.0767 N.am      8 UNK        -0.4313 
     33 C         -70.7355   27.4284  -75.7626 C.2       8 UNK         0.5041 
     34 O         -71.0350   28.5274  -75.2939 O.2       8 UNK        -0.5577 
     35 CA        -70.4896   26.2295  -74.8235 C.3       7 UNK         0.0284 
     36 CB        -70.8269   26.5389  -73.3499 C.3       7 UNK        -0.1958 
     37 N         -71.1756   24.9965  -75.2375 N.am      7 UNK        -0.4454 
     38 C         -72.4827   24.8410  -75.5035 C.2       7 UNK         0.5089 
     39 O         -73.2890   25.7707  -75.5747 O.2       7 UNK        -0.5125 
     40 CA        -72.9896   23.4066  -75.7586 C.3       6 UNK         0.0408 
     41 CB        -71.9086   22.3058  -75.6530 C.3       6 UNK        -0.1791 
     42 N         -74.1387   23.0982  -74.9014 N.am      6 UNK        -0.4762 
     43 C         -74.1753   23.0681  -73.5595 C.2       6 UNK         0.5007 
     44 O         -73.1840   23.2100  -72.8409 O.2       6 UNK        -0.5032 
     45 CA        -75.5704   22.8739  -72.9260 C.3       5 UNK         0.0783 
     46 C46       -75.5166   22.6740  -71.3904 C.3       11 UNK        -0.0857 
     47 S47       -77.1698   22.3542  -70.6803 S.3       11 UNK        -0.2512 
     48 C48       -77.3563   23.7185  -69.4882 C.3       11 UNK         0.0225 
     49 N         -76.4464   23.9865  -73.3007 N.am      5 UNK        -0.4615 
     50 C         -77.1175   24.0714  -74.4516 C.2       4 UNK         0.5053 
     51 O         -77.0545   23.2235  -75.3462 O.2       4 UNK        -0.5105 
     52 CA        -77.9373   25.3496  -74.6698 C.3       4 UNK         0.0263 
     53 CB        -77.1231   26.3178  -75.5430 C.3       4 UNK        -0.1981 
     54 N         -79.2278   25.0902  -75.3131 N.am      4 UNK        -0.4224 
     55 C         -80.1905   24.2801  -74.8444 C.2       3 UNK         0.4895 
     56 O         -80.1201   23.6637  -73.7800 O.2       3 UNK        -0.5091 
     57 CA        -81.4675   24.2007  -75.6958 C.3       3 UNK         0.0250 
     58 CB        -82.5709   23.3332  -75.0606 C.3       3 UNK        -0.1996 
     59 N         -81.9659   25.5592  -75.8801 N.am      3 UNK        -0.4254 
     60 C         -82.2925   26.1315  -77.0449 C.2       2 UNK         0.5004 
     61 O         -82.3392   25.5335  -78.1200 O.2       2 UNK        -0.5226 
     62 CA        -82.5827   27.6441  -77.0019 C.3       2 UNK         0.0269 
     63 CB        -84.0927   27.9013  -76.8743 C.3       2 UNK        -0.1926 
     64 N         -81.8810   28.3182  -75.9020 N.am      2 UNK        -0.4687 
     65 C         -80.5515   28.4870  -75.8420 C.2       1 UNK         0.5165 
     66 O         -79.7974   28.2178  -76.7773 O.2       1 UNK        -0.5079 
     67 H67       -76.9649   32.2691  -75.0005 H         1 UNK         0.0900 
     68 H68       -78.0860   33.0940  -73.9128 H         1 UNK         0.0900 
     69 H69       -78.5976   32.6591  -75.5456 H         1 UNK         0.0900 
     70 H70       -79.8313   30.7902  -75.6568 H         1 UNK         0.2959 
     71 H71       -79.0898   28.3993  -74.3089 H         1 UNK         0.1079 
     72 H72       -81.8173   29.5138  -73.4617 H         1 UNK         0.0837 
     73 H73       -80.4184   29.4644  -72.4463 H         1 UNK         0.0837 
     74 H74       -80.8765   28.1100  -70.5842 H         1 UNK         0.0685 
     75 H75       -81.3980   26.4522  -70.5520 H         1 UNK         0.0685 
     76 H76       -79.7950   24.7500  -70.1498 H         1 UNK         0.1434 
     77 H77       -75.6059   25.6752  -70.2580 H         1 UNK         0.1329 
     78 H78       -78.4646   28.5429  -71.6391 H         1 UNK         0.1335 
     79 H79       -75.1499   28.2841  -70.4608 H         1 UNK         0.0680 
     80 H80       -76.1909   29.1486  -71.5697 H         1 UNK         0.0680 
     81 H81       -72.8218   28.8560  -73.2874 H         1 UNK         0.1032 
     82 H82       -73.9101   29.7822  -72.2972 H         1 UNK         0.1032 
     83 H83       -75.4875   29.9884  -74.2444 H         1 UNK         0.0461 
     84 H84       -72.7057   32.3822  -75.8672 H         1 UNK         0.3453 
     85 H85       -73.0016   30.7728  -76.4800 H         1 UNK         0.3453 
     86 H86       -73.6732   28.1544  -75.5378 H         1 UNK         0.2984 
     87 H87       -75.1924   27.1154  -77.5931 H         1 UNK         0.0554 
     88 H88       -76.3967   28.5842  -79.1699 H         1 UNK         0.0847 
     89 H89       -75.0738   27.7843  -80.0017 H         1 UNK         0.0847 
     90 H90       -74.9262   29.4765  -79.5274 H         1 UNK         0.0847 
     91 H91       -73.0184   26.8407  -77.7599 H         1 UNK         0.3141 
     92 H92       -70.7787   27.5396  -79.1029 H         1 UNK         0.0743 
     93 H93       -69.8976   29.8464  -79.0953 H         1 UNK         0.0784 
     94 H94       -69.8476   29.8672  -77.3395 H         1 UNK         0.0784 
     95 H95       -68.7873   28.7864  -78.2432 H         1 UNK         0.0784 
     96 H96       -70.3876   26.2321  -77.3491 H         1 UNK         0.3213 
     97 H97       -69.4189   26.0262  -74.8768 H         1 UNK         0.0855 
     98 H98       -70.3141   27.4366  -73.0022 H         1 UNK         0.0814 
     99 H99       -70.5241   25.7209  -72.6965 H         1 UNK         0.0814 
    100 H100      -71.8963   26.6925  -73.2086 H         1 UNK         0.0814 
    101 H101      -70.6052   24.1625  -75.2324 H         1 UNK         0.3105 
    102 H102      -73.3653   23.3988  -76.7826 H         1 UNK         0.0547 
    103 H103      -71.1111   22.4617  -76.3805 H         1 UNK         0.0837 
    104 H104      -71.4548   22.2613  -74.6623 H         1 UNK         0.0837 
    105 H105      -72.3335   21.3237  -75.8605 H         1 UNK         0.0837 
    106 H106      -75.0337   23.0338  -75.3774 H         1 UNK         0.3020 
    107 H107      -75.9759   21.9524  -73.3513 H         1 UNK         0.1245 
    108 H108      -75.0565   23.5335  -70.9025 H         1 UNK         0.0781 
    109 H109      -74.8843   21.8187  -71.1450 H         1 UNK         0.0781 
    110 H110      -76.4557   23.7961  -68.8768 H         1 UNK         0.0836 
    111 H111      -78.1610   23.4637  -68.7968 H         1 UNK         0.0836 
    112 H112      -76.5276   24.7338  -72.6250 H         1 UNK         0.3022 
    113 H113      -78.1327   25.8171  -73.7023 H         1 UNK         0.0747 
    114 H114      -77.5838   27.3007  -75.6113 H         1 UNK         0.0793 
    115 H115      -76.1219   26.4649  -75.1360 H         1 UNK         0.0793 
    116 H116      -77.0037   25.9331  -76.5563 H         1 UNK         0.0793 
    117 H117      -79.3831   25.5505  -76.1985 H         1 UNK         0.3047 
    118 H118      -81.1870   23.7600  -76.6551 H         1 UNK         0.0822 
    119 H119      -83.4549   23.2905  -75.6969 H         1 UNK         0.0807 
    120 H120      -82.8769   23.7196  -74.0874 H         1 UNK         0.0807 
    121 H121      -82.2266   22.3087  -74.9139 H         1 UNK         0.0807 
    122 H122      -81.9414   26.1442  -75.0546 H         1 UNK         0.2946 
    123 H123      -82.2359   28.0713  -77.9459 H         1 UNK         0.1144 
    124 H124      -84.3180   28.9674  -76.9090 H         1 UNK         0.0793 
    125 H125      -84.4945   27.5020  -75.9421 H         1 UNK         0.0793 
    126 H126      -84.6385   27.4297  -77.6929 H         1 UNK         0.0793 
    127 H127      -82.4362   28.5716  -75.0969 H         1 UNK         0.2896 
@<TRIPOS>BOND
     1    1    2 1    
     2    1   67 1    
     3    1   68 1    
     4    1   69 1    
     5    2    3 2    
     6    2    4 am   BACKBONE|DICT|INTERRES
     7    4    5 1    
     8    4   70 1    
     9    5    6 1    
    10    5   65 1    
    11    5   71 1    
    12    6    7 1    
    13    6   72 1    
    14    6   73 1    
    15    7    8 1    
    16    8    9 1    
    17    8   74 1    
    18    8   75 1    
    19    9   10 ar   
    20    9   14 ar   
    21   10   11 ar   
    22   10   76 1    
    23   11   12 ar   
    24   11   48 1    
    25   12   13 ar   
    26   12   77 1    
    27   13   14 ar   
    28   13   15 1    
    29   14   78 1    
    30   15   16 1    
    31   15   79 1    
    32   15   80 1    
    33   16   17 1    
    34   17   18 1    
    35   17   81 1    
    36   17   82 1    
    37   18   19 1    
    38   18   22 1    
    39   18   83 1    
    40   19   20 am   BACKBONE|DICT|INTERRES
    41   19   21 2    
    42   20   84 1    
    43   20   85 1    
    44   22   23 am   BACKBONE|DICT|INTERRES
    45   22   86 1    
    46   23   24 2    
    47   23   25 1    
    48   25   26 1    
    49   25   27 1    
    50   25   87 1    
    51   26   88 1    
    52   26   89 1    
    53   26   90 1    
    54   27   28 am   BACKBONE|DICT|INTERRES
    55   27   91 1    
    56   28   29 2    
    57   28   30 1    
    58   30   31 1    
    59   30   32 1    
    60   30   92 1    
    61   31   93 1    
    62   31   94 1    
    63   31   95 1    
    64   32   33 am   BACKBONE|DICT|INTERRES
    65   32   96 1    
    66   33   34 2    
    67   33   35 1    
    68   35   36 1    
    69   35   37 1    
    70   35   97 1    
    71   36   98 1    
    72   36   99 1    
    73   36  100 1    
    74   37   38 am   BACKBONE|DICT|INTERRES
    75   37  101 1    
    76   38   39 2    
    77   38   40 1    
    78   40   41 1    
    79   40   42 1    
    80   40  102 1    
    81   41  103 1    
    82   41  104 1    
    83   41  105 1    
    84   42   43 am   BACKBONE|DICT|INTERRES
    85   42  106 1    
    86   43   44 2    
    87   43   45 1    
    88   45   46 1    
    89   45   49 1    
    90   45  107 1    
    91   46   47 1    
    92   46  108 1    
    93   46  109 1    
    94   47   48 1    
    95   48  110 1    
    96   48  111 1    
    97   49   50 am   BACKBONE|DICT|INTERRES
    98   49  112 1    
    99   50   51 2    
   100   50   52 1    
   101   52   53 1    
   102   52   54 1    
   103   52  113 1    
   104   53  114 1    
   105   53  115 1    
   106   53  116 1    
   107   54   55 am   BACKBONE|DICT|INTERRES
   108   54  117 1    
   109   55   56 2    
   110   55   57 1    
   111   57   58 1    
   112   57   59 1    
   113   57  118 1    
   114   58  119 1    
   115   58  120 1    
   116   58  121 1    
   117   59   60 am   BACKBONE|DICT|INTERRES
   118   59  122 1    
   119   60   61 2    
   120   60   62 1    
   121   62   63 1    
   122   62   64 1    
   123   62  123 1    
   124   63  124 1    
   125   63  125 1    
   126   63  126 1    
   127   64   65 am   BACKBONE|DICT|INTERRES
   128   64  127 1    
   129   65   66 2    
@<TRIPOS>SUBSTRUCTURE
     1 UNK         1 GROUP             0       ****    0 ROOT    
