@<TRIPOS>MOLECULE
3R135
127   129    1
SMALL
USER_CHARGES


@<TRIPOS>ATOM
      1 CA        -85.6426   30.8084  -75.6124 C.3       0 UNK        -0.1998 
      2 C         -84.3205   30.1136  -75.9026 C.2       0 UNK         0.4909 
      3 O         -83.8929   30.0686  -77.0568 O.2       0 UNK        -0.5240 
      4 N         -83.6655   29.5794  -74.8639 N.am      1 UNK        -0.4739 
      5 CA        -82.4202   28.8140  -74.9690 C.3       1 UNK         0.0864 
      6 C6        -81.7293   28.6938  -73.5875 C.3       11 UNK        -0.0881 
      7 S7        -80.0029   28.1238  -73.7114 S.3       11 UNK        -0.2682 
      8 C8        -79.3245   28.7121  -72.1310 C.3       11 UNK         0.0289 
      9 C9        -77.9686   28.0779  -71.8678 C.ar      11 UNK        -0.0687 
     10 C10       -77.8868   26.8744  -71.1619 C.ar      11 UNK        -0.0823 
     11 C11       -76.6521   26.2518  -70.9598 C.ar      11 UNK        -0.0830 
     12 C12       -75.4919   26.8493  -71.4559 C.ar      11 UNK        -0.1021 
     13 C13       -75.5607   28.0532  -72.1624 C.ar      11 UNK        -0.0753 
     14 C14       -76.8006   28.6703  -72.3575 C.ar      11 UNK        -0.0933 
     15 C15       -74.3027   28.6313  -72.7869 C.3       11 UNK         0.0166 
     16 S16       -73.1371   29.2615  -71.5370 S.3       11 UNK        -0.2615 
     17 C17       -73.2213   31.0650  -71.8287 C.3       11 UNK        -0.0865 
     18 CA        -72.1535   31.5782  -72.8343 C.3       10 UNK         0.0862 
     19 C         -70.7196   31.6052  -72.2233 C.2       10 UNK         0.5551 
     20 N         -69.7360   30.9064  -72.7800 N.am      10 UNK        -0.7319 
     21 O         -70.4934   32.2908  -71.2292 O.2       10 UNK        -0.5018 
     22 N         -72.2602   30.8713  -74.1169 N.am      10 UNK        -0.4509 
     23 C         -71.8495   31.3268  -75.3038 C.2       10 UNK         0.4899 
     24 O         -71.4116   32.4635  -75.4875 O.2       10 UNK        -0.4839 
     25 CA        -71.9545   30.3338  -76.4795 C.3       9 UNK         0.0222 
     26 CB        -70.9834   30.6739  -77.6297 C.3       9 UNK        -0.1966 
     27 N         -71.8137   28.9215  -76.0887 N.am      9 UNK        -0.4218 
     28 C         -70.7549   28.3449  -75.4912 C.2       9 UNK         0.5020 
     29 O         -69.7757   28.9776  -75.0927 O.2       9 UNK        -0.5274 
     30 CA        -70.7777   26.8152  -75.2798 C.3       8 UNK         0.0270 
     31 CB        -70.8396   26.4699  -73.7822 C.3       8 UNK        -0.1976 
     32 N         -71.8685   26.1310  -75.9819 N.am      8 UNK        -0.4313 
     33 C         -71.9308   25.9672  -77.3136 C.2       8 UNK         0.5041 
     34 O         -71.0135   26.2738  -78.0760 O.2       8 UNK        -0.5577 
     35 CA        -73.2362   25.4055  -77.9151 C.3       7 UNK         0.0284 
     36 CB        -73.0554   23.9283  -78.2998 C.3       7 UNK        -0.1958 
     37 N         -74.4143   25.5294  -77.0511 N.am      7 UNK        -0.4454 
     38 C         -74.9066   26.6703  -76.5430 C.2       7 UNK         0.5089 
     39 O         -74.4506   27.7852  -76.7991 O.2       7 UNK        -0.5125 
     40 CA        -76.0549   26.5439  -75.5233 C.3       6 UNK         0.0408 
     41 CB        -77.4068   26.7252  -76.2294 C.3       6 UNK        -0.1791 
     42 N         -76.0767   25.2777  -74.7813 N.am      6 UNK        -0.4762 
     43 C         -75.0595   24.6959  -74.1229 C.2       6 UNK         0.5007 
     44 O         -73.9501   25.2139  -73.9856 O.2       6 UNK        -0.5032 
     45 CA        -75.2838   23.2493  -73.6261 C.3       5 UNK         0.0783 
     46 C46       -75.3353   23.1483  -72.0784 C.3       11 UNK        -0.0857 
     47 S47       -76.9578   23.5299  -71.3266 S.3       11 UNK        -0.2512 
     48 C48       -76.5817   24.9262  -70.2210 C.3       11 UNK         0.0225 
     49 N         -76.4211   22.5861  -74.2831 N.am      5 UNK        -0.4615 
     50 C         -76.5045   22.3058  -75.5911 C.2       4 UNK         0.5053 
     51 O         -75.5714   22.4711  -76.3772 O.2       4 UNK        -0.5105 
     52 CA        -77.8754   21.8728  -76.1391 C.3       4 UNK         0.0263 
     53 CB        -78.1060   20.3586  -75.9655 C.3       4 UNK        -0.1981 
     54 N         -78.9930   22.6828  -75.6218 N.am      4 UNK        -0.4224 
     55 C         -79.5356   22.6838  -74.3941 C.2       3 UNK         0.4895 
     56 O         -79.1751   21.9206  -73.4984 O.2       3 UNK        -0.5091 
     57 CA        -80.6173   23.7387  -74.0788 C.3       3 UNK         0.0250 
     58 CB        -80.2561   24.5215  -72.8043 C.3       3 UNK        -0.1996 
     59 N         -80.8588   24.7085  -75.1525 N.am      3 UNK        -0.4254 
     60 C         -81.6136   24.4981  -76.2398 C.2       2 UNK         0.5004 
     61 O         -82.1373   23.4148  -76.5024 O.2       2 UNK        -0.5226 
     62 CA        -81.7899   25.6986  -77.1945 C.3       2 UNK         0.0269 
     63 CB        -83.0191   25.5553  -78.1182 C.3       2 UNK        -0.1926 
     64 N         -81.7979   26.9980  -76.5024 N.am      2 UNK        -0.4687 
     65 C         -82.6904   27.4278  -75.5951 C.2       1 UNK         0.5165 
     66 O         -83.6694   26.7758  -75.2223 O.2       1 UNK        -0.5079 
     67 H67       -85.8910   30.7861  -74.5515 H         1 UNK         0.0900 
     68 H68       -86.4496   30.3220  -76.1598 H         1 UNK         0.0900 
     69 H69       -85.5962   31.8505  -75.9277 H         1 UNK         0.0900 
     70 H70       -84.0813   29.6179  -73.9442 H         1 UNK         0.2959 
     71 H71       -81.7560   29.3718  -75.6338 H         1 UNK         0.1079 
     72 H72       -82.2815   28.0245  -72.9245 H         1 UNK         0.0837 
     73 H73       -81.7223   29.6691  -73.0974 H         1 UNK         0.0837 
     74 H74       -80.0151   28.4673  -71.3224 H         1 UNK         0.0685 
     75 H75       -79.2392   29.7996  -72.1515 H         1 UNK         0.0685 
     76 H76       -78.7891   26.4071  -70.7915 H         1 UNK         0.1434 
     77 H77       -74.5344   26.3644  -71.3224 H         1 UNK         0.1329 
     78 H78       -76.8642   29.5907  -72.9216 H         1 UNK         0.1335 
     79 H79       -73.8109   27.8494  -73.3646 H         1 UNK         0.0680 
     80 H80       -74.5599   29.4094  -73.5064 H         1 UNK         0.0680 
     81 H81       -74.2197   31.3265  -72.1823 H         1 UNK         0.1032 
     82 H82       -73.1202   31.5751  -70.8688 H         1 UNK         0.1032 
     83 H83       -72.3934   32.6250  -73.0304 H         1 UNK         0.0461 
     84 H84       -68.8162   30.9444  -72.3713 H         1 UNK         0.3453 
     85 H85       -69.8954   30.3351  -73.6028 H         1 UNK         0.3453 
     86 H86       -72.5621   29.9115  -74.0558 H         1 UNK         0.2984 
     87 H87       -72.9694   30.4353  -76.8665 H         1 UNK         0.0554 
     88 H88       -71.0883   29.9726  -78.4576 H         1 UNK         0.0847 
     89 H89       -69.9440   30.6507  -77.3004 H         1 UNK         0.0847 
     90 H90       -71.1766   31.6714  -78.0262 H         1 UNK         0.0847 
     91 H91       -72.5995   28.3309  -76.3487 H         1 UNK         0.3141 
     92 H92       -69.8340   26.4299  -75.6714 H         1 UNK         0.0743 
     93 H93       -70.0050   26.9186  -73.2416 H         1 UNK         0.0784 
     94 H94       -71.7562   26.8303  -73.3174 H         1 UNK         0.0784 
     95 H95       -70.7866   25.3931  -73.6212 H         1 UNK         0.0784 
     96 H96       -72.6530   25.8269  -75.4114 H         1 UNK         0.3213 
     97 H97       -73.4398   25.9756  -78.8239 H         1 UNK         0.0855 
     98 H98       -72.8790   23.3030  -77.4233 H         1 UNK         0.0814 
     99 H99       -72.2049   23.7986  -78.9707 H         1 UNK         0.0814 
    100 H100      -73.9347   23.5405  -78.8147 H         1 UNK         0.0814 
    101 H101      -74.8520   24.6607  -76.7698 H         1 UNK         0.3105 
    102 H102      -75.9385   27.3481  -74.7988 H         1 UNK         0.0547 
    103 H103      -78.2313   26.6854  -75.5199 H         1 UNK         0.0837 
    104 H104      -77.4581   27.6935  -76.7294 H         1 UNK         0.0837 
    105 H105      -77.5758   25.9571  -76.9851 H         1 UNK         0.0837 
    106 H106      -76.9415   24.7603  -74.8148 H         1 UNK         0.3020 
    107 H107      -74.3893   22.7083  -73.9440 H         1 UNK         0.1245 
    108 H108      -74.5544   23.7603  -71.6230 H         1 UNK         0.0781 
    109 H109      -75.0950   22.1242  -71.7892 H         1 UNK         0.0781 
    110 H110      -75.6057   24.7885  -69.7532 H         1 UNK         0.0836 
    111 H111      -77.3065   24.9287  -69.4056 H         1 UNK         0.0836 
    112 H112      -77.2380   22.4126  -73.7040 H         1 UNK         0.3022 
    113 H113      -77.8534   22.0695  -77.2124 H         1 UNK         0.0747 
    114 H114      -79.0701   20.0551  -76.3735 H         1 UNK         0.0793 
    115 H115      -77.3378   19.7896  -76.4907 H         1 UNK         0.0793 
    116 H116      -78.0716   20.0517  -74.9200 H         1 UNK         0.0793 
    117 H117      -79.3722   23.3500  -76.2780 H         1 UNK         0.3047 
    118 H118      -81.5448   23.1937  -73.8903 H         1 UNK         0.0822 
    119 H119      -80.1402   23.8555  -71.9480 H         1 UNK         0.0807 
    120 H120      -81.0309   25.2435  -72.5455 H         1 UNK         0.0807 
    121 H121      -79.3175   25.0638  -72.9232 H         1 UNK         0.0807 
    122 H122      -80.4833   25.6355  -75.0098 H         1 UNK         0.2946 
    123 H123      -80.9050   25.6987  -77.8333 H         1 UNK         0.1144 
    124 H124      -82.9368   24.6659  -78.7443 H         1 UNK         0.0793 
    125 H125      -83.1158   26.4112  -78.7860 H         1 UNK         0.0793 
    126 H126      -83.9461   25.4660  -77.5511 H         1 UNK         0.0793 
    127 H127      -81.0264   27.6113  -76.7288 H         1 UNK         0.2896 
@<TRIPOS>BOND
     1    1    2 1    
     2    1   67 1    
     3    1   68 1    
     4    1   69 1    
     5    2    3 2    
     6    2    4 am   BACKBONE|DICT|INTERRES
     7    4    5 1    
     8    4   70 1    
     9    5    6 1    
    10    5   65 1    
    11    5   71 1    
    12    6    7 1    
    13    6   72 1    
    14    6   73 1    
    15    7    8 1    
    16    8    9 1    
    17    8   74 1    
    18    8   75 1    
    19    9   10 ar   
    20    9   14 ar   
    21   10   11 ar   
    22   10   76 1    
    23   11   12 ar   
    24   11   48 1    
    25   12   13 ar   
    26   12   77 1    
    27   13   14 ar   
    28   13   15 1    
    29   14   78 1    
    30   15   16 1    
    31   15   79 1    
    32   15   80 1    
    33   16   17 1    
    34   17   18 1    
    35   17   81 1    
    36   17   82 1    
    37   18   19 1    
    38   18   22 1    
    39   18   83 1    
    40   19   20 am   BACKBONE|DICT|INTERRES
    41   19   21 2    
    42   20   84 1    
    43   20   85 1    
    44   22   23 am   BACKBONE|DICT|INTERRES
    45   22   86 1    
    46   23   24 2    
    47   23   25 1    
    48   25   26 1    
    49   25   27 1    
    50   25   87 1    
    51   26   88 1    
    52   26   89 1    
    53   26   90 1    
    54   27   28 am   BACKBONE|DICT|INTERRES
    55   27   91 1    
    56   28   29 2    
    57   28   30 1    
    58   30   31 1    
    59   30   32 1    
    60   30   92 1    
    61   31   93 1    
    62   31   94 1    
    63   31   95 1    
    64   32   33 am   BACKBONE|DICT|INTERRES
    65   32   96 1    
    66   33   34 2    
    67   33   35 1    
    68   35   36 1    
    69   35   37 1    
    70   35   97 1    
    71   36   98 1    
    72   36   99 1    
    73   36  100 1    
    74   37   38 am   BACKBONE|DICT|INTERRES
    75   37  101 1    
    76   38   39 2    
    77   38   40 1    
    78   40   41 1    
    79   40   42 1    
    80   40  102 1    
    81   41  103 1    
    82   41  104 1    
    83   41  105 1    
    84   42   43 am   BACKBONE|DICT|INTERRES
    85   42  106 1    
    86   43   44 2    
    87   43   45 1    
    88   45   46 1    
    89   45   49 1    
    90   45  107 1    
    91   46   47 1    
    92   46  108 1    
    93   46  109 1    
    94   47   48 1    
    95   48  110 1    
    96   48  111 1    
    97   49   50 am   BACKBONE|DICT|INTERRES
    98   49  112 1    
    99   50   51 2    
   100   50   52 1    
   101   52   53 1    
   102   52   54 1    
   103   52  113 1    
   104   53  114 1    
   105   53  115 1    
   106   53  116 1    
   107   54   55 am   BACKBONE|DICT|INTERRES
   108   54  117 1    
   109   55   56 2    
   110   55   57 1    
   111   57   58 1    
   112   57   59 1    
   113   57  118 1    
   114   58  119 1    
   115   58  120 1    
   116   58  121 1    
   117   59   60 am   BACKBONE|DICT|INTERRES
   118   59  122 1    
   119   60   61 2    
   120   60   62 1    
   121   62   63 1    
   122   62   64 1    
   123   62  123 1    
   124   63  124 1    
   125   63  125 1    
   126   63  126 1    
   127   64   65 am   BACKBONE|DICT|INTERRES
   128   64  127 1    
   129   65   66 2    
@<TRIPOS>SUBSTRUCTURE
     1 UNK         1 GROUP             0       ****    0 ROOT    
