@<TRIPOS>MOLECULE
3R135
127   129    1
SMALL
USER_CHARGES


@<TRIPOS>ATOM
      1 CA        -80.2048   22.1957  -71.0353 C.3       0 UNK        -0.1998 
      2 C         -80.2963   23.5827  -71.6523 C.2       0 UNK         0.4909 
      3 O         -79.4003   23.9628  -72.4043 O.2       0 UNK        -0.5240 
      4 N         -81.3815   24.3127  -71.3481 N.am      1 UNK        -0.4739 
      5 CA        -81.7112   25.6905  -71.7567 C.3       1 UNK         0.0864 
      6 C6        -81.2055   26.7802  -70.7665 C.3       11 UNK        -0.0881 
      7 S7        -79.3968   26.8904  -70.5228 S.3       11 UNK        -0.2682 
      8 C8        -79.1954   28.6487  -70.0865 C.3       11 UNK         0.0289 
      9 C9        -78.6067   29.4747  -71.2247 C.ar      11 UNK        -0.0687 
     10 C10       -79.3808   29.8104  -72.3406 C.ar      11 UNK        -0.0823 
     11 C11       -78.8533   30.6120  -73.3601 C.ar      11 UNK        -0.0830 
     12 C12       -77.5400   31.0793  -73.2545 C.ar      11 UNK        -0.1021 
     13 C13       -76.7516   30.7415  -72.1517 C.ar      11 UNK        -0.0753 
     14 C14       -77.2915   29.9423  -71.1392 C.ar      11 UNK        -0.0933 
     15 C15       -75.3224   31.2554  -72.0535 C.3       11 UNK         0.0166 
     16 S16       -74.1808   30.2533  -73.0557 S.3       11 UNK        -0.2615 
     17 C17       -74.1527   28.6877  -72.1175 C.3       11 UNK        -0.0865 
     18 CA        -72.7213   28.1449  -71.8800 C.3       10 UNK         0.0862 
     19 C         -72.7450   26.9077  -70.9351 C.2       10 UNK         0.5551 
     20 N         -72.3078   25.7302  -71.3655 N.am      10 UNK        -0.7319 
     21 O         -73.1642   27.0228  -69.7863 O.2       10 UNK        -0.5018 
     22 N         -72.0045   27.9251  -73.1471 N.am      10 UNK        -0.4509 
     23 C         -70.6716   27.9491  -73.2788 C.2       10 UNK         0.4899 
     24 O         -69.8987   28.1635  -72.3441 O.2       10 UNK        -0.4839 
     25 CA        -70.0823   27.6778  -74.6763 C.3       9 UNK         0.0222 
     26 CB        -69.4175   26.2915  -74.7160 C.3       9 UNK        -0.1966 
     27 N         -71.0529   27.7626  -75.7697 N.am      9 UNK        -0.4218 
     28 C         -71.6441   28.8749  -76.2215 C.2       9 UNK         0.5020 
     29 O         -71.4155   29.9953  -75.7646 O.2       9 UNK        -0.5274 
     30 CA        -72.6709   28.7320  -77.3641 C.3       8 UNK         0.0270 
     31 CB        -72.0972   29.2640  -78.6920 C.3       8 UNK        -0.1976 
     32 N         -73.2528   27.3912  -77.5456 N.am      8 UNK        -0.4313 
     33 C         -72.6569   26.2484  -77.9195 C.2       8 UNK         0.5041 
     34 O         -71.4448   26.1424  -78.1061 O.2       8 UNK        -0.5577 
     35 CA        -73.5382   24.9947  -78.0668 C.3       7 UNK         0.0284 
     36 CB        -73.3496   24.0720  -76.8516 C.3       7 UNK        -0.1958 
     37 N         -74.9632   25.2913  -78.2338 N.am      7 UNK        -0.4454 
     38 C         -75.5042   25.8480  -79.3267 C.2       7 UNK         0.5089 
     39 O         -74.8697   26.1083  -80.3494 O.2       7 UNK        -0.5125 
     40 CA        -76.9988   26.2062  -79.2559 C.3       6 UNK         0.0408 
     41 CB        -77.8639   24.9959  -79.6400 C.3       6 UNK        -0.1791 
     42 N         -77.4127   26.7077  -77.9419 N.am      6 UNK        -0.4762 
     43 C         -76.9579   27.8320  -77.3653 C.2       6 UNK         0.5007 
     44 O         -76.1388   28.5872  -77.8887 O.2       6 UNK        -0.5032 
     45 CA        -77.4642   28.1285  -75.9409 C.3       5 UNK         0.0783 
     46 C46       -78.9169   28.6665  -75.9533 C.3       11 UNK        -0.0857 
     47 S47       -78.9816   30.4757  -76.1539 S.3       11 UNK        -0.2512 
     48 C48       -79.7103   30.9945  -74.5623 C.3       11 UNK         0.0225 
     49 N         -77.3260   26.9534  -75.0798 N.am      5 UNK        -0.4615 
     50 C         -76.1602   26.4002  -74.7171 C.2       4 UNK         0.5053 
     51 O         -75.0563   26.8552  -75.0180 O.2       4 UNK        -0.5105 
     52 CA        -76.2419   25.0891  -73.9186 C.3       4 UNK         0.0263 
     53 CB        -76.3386   25.3664  -72.4118 C.3       4 UNK        -0.1981 
     54 N         -77.3720   24.2560  -74.3354 N.am      4 UNK        -0.4224 
     55 C         -77.4622   23.6641  -75.5341 C.2       3 UNK         0.4895 
     56 O         -76.5987   23.7491  -76.4067 O.2       3 UNK        -0.5091 
     57 CA        -78.7440   22.8727  -75.8238 C.3       3 UNK         0.0250 
     58 CB        -78.7205   21.5134  -75.1061 C.3       3 UNK        -0.1996 
     59 N         -79.9638   23.5986  -75.4658 N.am      3 UNK        -0.4254 
     60 C         -80.3803   24.7369  -76.0377 C.2       2 UNK         0.5004 
     61 O         -79.7401   25.3551  -76.8878 O.2       2 UNK        -0.5226 
     62 CA        -81.7474   25.2704  -75.5859 C.3       2 UNK         0.0269 
     63 CB        -82.8818   24.5453  -76.3280 C.3       2 UNK        -0.1926 
     64 N         -81.9416   25.1361  -74.1397 N.am      2 UNK        -0.4687 
     65 C         -81.4532   26.0084  -73.2471 C.2       1 UNK         0.5165 
     66 O         -80.8400   27.0241  -73.5699 O.2       1 UNK        -0.5079 
     67 H67       -80.2024   21.4366  -71.8169 H         1 UNK         0.0900 
     68 H68       -81.0378   21.9900  -70.3634 H         1 UNK         0.0900 
     69 H69       -79.2801   22.1019  -70.4667 H         1 UNK         0.0900 
     70 H70       -82.0683   23.8920  -70.7378 H         1 UNK         0.2959 
     71 H71       -82.7995   25.7309  -71.6842 H         1 UNK         0.1079 
     72 H72       -81.5854   27.7553  -71.0759 H         1 UNK         0.0837 
     73 H73       -81.6486   26.6010  -69.7859 H         1 UNK         0.0837 
     74 H74       -80.1484   29.0790  -69.7760 H         1 UNK         0.0685 
     75 H75       -78.5491   28.7047  -69.2093 H         1 UNK         0.0685 
     76 H76       -80.3968   29.4475  -72.4113 H         1 UNK         0.1434 
     77 H77       -77.1272   31.7006  -74.0377 H         1 UNK         0.1329 
     78 H78       -76.6906   29.6925  -70.2759 H         1 UNK         0.1335 
     79 H79       -75.2823   32.2880  -72.4034 H         1 UNK         0.0680 
     80 H80       -74.9840   31.2731  -71.0163 H         1 UNK         0.0680 
     81 H81       -74.7584   27.9628  -72.6571 H         1 UNK         0.1032 
     82 H82       -74.6507   28.8383  -71.1592 H         1 UNK         0.1032 
     83 H83       -72.1811   28.9180  -71.3297 H         1 UNK         0.0461 
     84 H84       -71.9545   25.6300  -72.3027 H         1 UNK         0.3453 
     85 H85       -72.3229   24.9391  -70.7417 H         1 UNK         0.3453 
     86 H86       -72.5764   27.7492  -73.9608 H         1 UNK         0.2984 
     87 H87       -69.3126   28.4314  -74.8543 H         1 UNK         0.0554 
     88 H88       -68.6594   26.1970  -73.9371 H         1 UNK         0.0847 
     89 H89       -68.9204   26.1169  -75.6706 H         1 UNK         0.0847 
     90 H90       -70.1425   25.4908  -74.5645 H         1 UNK         0.0847 
     91 H91       -71.2298   26.9144  -76.2980 H         1 UNK         0.3141 
     92 H92       -73.5108   29.3724  -77.0897 H         1 UNK         0.0743 
     93 H93       -71.7675   30.2986  -78.5879 H         1 UNK         0.0784 
     94 H94       -71.2375   28.6823  -79.0261 H         1 UNK         0.0784 
     95 H95       -72.8469   29.2410  -79.4831 H         1 UNK         0.0784 
     96 H96       -74.2478   27.3445  -77.3600 H         1 UNK         0.3213 
     97 H97       -73.1980   24.4617  -78.9572 H         1 UNK         0.0855 
     98 H98       -72.3013   23.7971  -76.7268 H         1 UNK         0.0814 
     99 H99       -73.9148   23.1466  -76.9638 H         1 UNK         0.0814 
    100 H100      -73.6729   24.5529  -75.9282 H         1 UNK         0.0814 
    101 H101      -75.5803   25.0202  -77.4719 H         1 UNK         0.3105 
    102 H102      -77.1832   26.9998  -79.9827 H         1 UNK         0.0547 
    103 H103      -77.5902   24.6158  -80.6251 H         1 UNK         0.0837 
    104 H104      -77.7495   24.1764  -78.9295 H         1 UNK         0.0837 
    105 H105      -78.9209   25.2598  -79.6761 H         1 UNK         0.0837 
    106 H106      -78.1168   26.1589  -77.4517 H         1 UNK         0.3020 
    107 H107      -76.8102   28.8934  -75.5136 H         1 UNK         0.1245 
    108 H108      -79.4058   28.4236  -75.0130 H         1 UNK         0.0781 
    109 H109      -79.5294   28.1936  -76.7236 H         1 UNK         0.0781 
    110 H110      -80.7107   30.5663  -74.4784 H         1 UNK         0.0836 
    111 H111      -79.8411   32.0773  -74.5717 H         1 UNK         0.0836 
    112 H112      -78.1825   26.5040  -74.7893 H         1 UNK         0.3022 
    113 H113      -75.3258   24.5241  -74.1015 H         1 UNK         0.0747 
    114 H114      -75.4280   25.8331  -72.0392 H         1 UNK         0.0793 
    115 H115      -77.1704   26.0319  -72.1813 H         1 UNK         0.0793 
    116 H116      -76.4816   24.4464  -71.8448 H         1 UNK         0.0793 
    117 H117      -78.1365   24.1451  -73.6673 H         1 UNK         0.3047 
    118 H118      -78.7770   22.6874  -76.8996 H         1 UNK         0.0822 
    119 H119      -79.5836   20.9056  -75.3780 H         1 UNK         0.0807 
    120 H120      -78.7176   21.6277  -74.0214 H         1 UNK         0.0807 
    121 H121      -77.8285   20.9463  -75.3761 H         1 UNK         0.0807 
    122 H122      -80.5282   23.2005  -74.7307 H         1 UNK         0.2946 
    123 H123      -81.7915   26.3282  -75.8578 H         1 UNK         0.1144 
    124 H124      -83.8542   24.9664  -76.0722 H         1 UNK         0.0793 
    125 H125      -82.9058   23.4798  -76.0960 H         1 UNK         0.0793 
    126 H126      -82.7632   24.6410  -77.4083 H         1 UNK         0.0793 
    127 H127      -82.4421   24.3245  -73.8068 H         1 UNK         0.2896 
@<TRIPOS>BOND
     1    1    2 1    
     2    1   67 1    
     3    1   68 1    
     4    1   69 1    
     5    2    3 2    
     6    2    4 am   BACKBONE|DICT|INTERRES
     7    4    5 1    
     8    4   70 1    
     9    5    6 1    
    10    5   65 1    
    11    5   71 1    
    12    6    7 1    
    13    6   72 1    
    14    6   73 1    
    15    7    8 1    
    16    8    9 1    
    17    8   74 1    
    18    8   75 1    
    19    9   10 ar   
    20    9   14 ar   
    21   10   11 ar   
    22   10   76 1    
    23   11   12 ar   
    24   11   48 1    
    25   12   13 ar   
    26   12   77 1    
    27   13   14 ar   
    28   13   15 1    
    29   14   78 1    
    30   15   16 1    
    31   15   79 1    
    32   15   80 1    
    33   16   17 1    
    34   17   18 1    
    35   17   81 1    
    36   17   82 1    
    37   18   19 1    
    38   18   22 1    
    39   18   83 1    
    40   19   20 am   BACKBONE|DICT|INTERRES
    41   19   21 2    
    42   20   84 1    
    43   20   85 1    
    44   22   23 am   BACKBONE|DICT|INTERRES
    45   22   86 1    
    46   23   24 2    
    47   23   25 1    
    48   25   26 1    
    49   25   27 1    
    50   25   87 1    
    51   26   88 1    
    52   26   89 1    
    53   26   90 1    
    54   27   28 am   BACKBONE|DICT|INTERRES
    55   27   91 1    
    56   28   29 2    
    57   28   30 1    
    58   30   31 1    
    59   30   32 1    
    60   30   92 1    
    61   31   93 1    
    62   31   94 1    
    63   31   95 1    
    64   32   33 am   BACKBONE|DICT|INTERRES
    65   32   96 1    
    66   33   34 2    
    67   33   35 1    
    68   35   36 1    
    69   35   37 1    
    70   35   97 1    
    71   36   98 1    
    72   36   99 1    
    73   36  100 1    
    74   37   38 am   BACKBONE|DICT|INTERRES
    75   37  101 1    
    76   38   39 2    
    77   38   40 1    
    78   40   41 1    
    79   40   42 1    
    80   40  102 1    
    81   41  103 1    
    82   41  104 1    
    83   41  105 1    
    84   42   43 am   BACKBONE|DICT|INTERRES
    85   42  106 1    
    86   43   44 2    
    87   43   45 1    
    88   45   46 1    
    89   45   49 1    
    90   45  107 1    
    91   46   47 1    
    92   46  108 1    
    93   46  109 1    
    94   47   48 1    
    95   48  110 1    
    96   48  111 1    
    97   49   50 am   BACKBONE|DICT|INTERRES
    98   49  112 1    
    99   50   51 2    
   100   50   52 1    
   101   52   53 1    
   102   52   54 1    
   103   52  113 1    
   104   53  114 1    
   105   53  115 1    
   106   53  116 1    
   107   54   55 am   BACKBONE|DICT|INTERRES
   108   54  117 1    
   109   55   56 2    
   110   55   57 1    
   111   57   58 1    
   112   57   59 1    
   113   57  118 1    
   114   58  119 1    
   115   58  120 1    
   116   58  121 1    
   117   59   60 am   BACKBONE|DICT|INTERRES
   118   59  122 1    
   119   60   61 2    
   120   60   62 1    
   121   62   63 1    
   122   62   64 1    
   123   62  123 1    
   124   63  124 1    
   125   63  125 1    
   126   63  126 1    
   127   64   65 am   BACKBONE|DICT|INTERRES
   128   64  127 1    
   129   65   66 2    
@<TRIPOS>SUBSTRUCTURE
     1 UNK         1 GROUP             0       ****    0 ROOT    
