@<TRIPOS>MOLECULE
3R135
127   129    1
SMALL
USER_CHARGES


@<TRIPOS>ATOM
      1 CA        -84.1289   27.8293  -71.4539 C.3       0 UNK        -0.1998 
      2 C         -83.5322   28.0690  -72.8327 C.2       0 UNK         0.4909 
      3 O         -84.2625   28.0701  -73.8241 O.2       0 UNK        -0.5240 
      4 N         -82.2104   28.2758  -72.9000 N.am      1 UNK        -0.4739 
      5 CA        -81.4572   28.5032  -74.1416 C.3       1 UNK         0.0864 
      6 C6        -80.0409   29.0683  -73.8667 C.3       11 UNK        -0.0881 
      7 S7        -80.0850   30.7202  -73.0860 S.3       11 UNK        -0.2682 
      8 C8        -79.9093   30.3512  -71.3083 C.3       11 UNK         0.0289 
      9 C9        -78.4887   29.9532  -70.9369 C.ar      11 UNK        -0.0687 
     10 C10       -78.1310   28.6049  -70.8559 C.ar      11 UNK        -0.0823 
     11 C11       -76.8202   28.2282  -70.5396 C.ar      11 UNK        -0.0830 
     12 C12       -75.8835   29.2243  -70.2388 C.ar      11 UNK        -0.1021 
     13 C13       -76.2305   30.5785  -70.3054 C.ar      11 UNK        -0.0753 
     14 C14       -77.5344   30.9352  -70.6594 C.ar      11 UNK        -0.0933 
     15 C15       -75.2037   31.6618  -69.9975 C.3       11 UNK         0.0166 
     16 S16       -74.5825   32.4736  -71.5094 S.3       11 UNK        -0.2615 
     17 C17       -73.5252   31.1671  -72.2202 C.3       11 UNK        -0.0865 
     18 CA        -74.3094   30.2287  -73.1850 C.3       10 UNK         0.0862 
     19 C         -74.2185   30.6189  -74.6900 C.2       10 UNK         0.5551 
     20 N         -74.2394   29.6740  -75.6185 N.am      10 UNK        -0.7319 
     21 O         -74.1454   31.7980  -75.0250 O.2       10 UNK        -0.5018 
     22 N         -74.1250   28.8098  -72.8423 N.am      10 UNK        -0.4509 
     23 C         -73.0419   28.0245  -72.8977 C.2       10 UNK         0.4899 
     24 O         -73.0757   26.8819  -72.4399 O.2       10 UNK        -0.4839 
     25 CA        -71.7238   28.5100  -73.5256 C.3       9 UNK         0.0222 
     26 CB        -70.6723   28.7952  -72.4396 C.3       9 UNK        -0.1966 
     27 N         -71.2507   27.4135  -74.3663 N.am      9 UNK        -0.4218 
     28 C         -71.1908   27.4153  -75.7023 C.2       9 UNK         0.5020 
     29 O         -71.3306   28.4209  -76.3993 O.2       9 UNK        -0.5274 
     30 CA        -70.9426   26.0647  -76.3895 C.3       8 UNK         0.0270 
     31 CB        -70.5894   24.9054  -75.4310 C.3       8 UNK        -0.1976 
     32 N         -72.1311   25.7085  -77.1631 N.am      8 UNK        -0.4313 
     33 C         -72.1125   25.0880  -78.3499 C.2       8 UNK         0.5041 
     34 O         -71.0713   24.7829  -78.9350 O.2       8 UNK        -0.5577 
     35 CA        -73.4566   24.7043  -79.0035 C.3       7 UNK         0.0284 
     36 CB        -73.6327   23.1761  -78.9970 C.3       7 UNK        -0.1958 
     37 N         -74.6348   25.3135  -78.3828 N.am      7 UNK        -0.4454 
     38 C         -74.9852   26.6014  -78.4927 C.2       7 UNK         0.5089 
     39 O         -74.3738   27.4209  -79.1782 O.2       7 UNK        -0.5125 
     40 CA        -76.2101   27.0619  -77.6786 C.3       6 UNK         0.0408 
     41 CB        -77.4883   26.9497  -78.5219 C.3       6 UNK        -0.1791 
     42 N         -76.3988   26.3470  -76.4098 N.am      6 UNK        -0.4762 
     43 C         -75.5031   26.3007  -75.4124 C.2       6 UNK         0.5007 
     44 O         -74.3840   26.8040  -75.4864 O.2       6 UNK        -0.5032 
     45 CA        -75.9156   25.5565  -74.1324 C.3       5 UNK         0.0783 
     46 C46       -76.8982   26.4124  -73.2964 C.3       11 UNK        -0.0857 
     47 S47       -77.2837   25.6655  -71.6770 S.3       11 UNK        -0.2512 
     48 C48       -76.3929   26.7583  -70.5068 C.3       11 UNK         0.0225 
     49 N         -76.4620   24.2471  -74.4859 N.am      5 UNK        -0.4615 
     50 C         -75.7150   23.1750  -74.7799 C.2       4 UNK         0.5053 
     51 O         -74.4882   23.1473  -74.6838 O.2       4 UNK        -0.5105 
     52 CA        -76.4552   21.9233  -75.2856 C.3       4 UNK         0.0263 
     53 CB        -76.8162   21.0024  -74.1091 C.3       4 UNK        -0.1981 
     54 N         -77.6675   22.2314  -76.0493 N.am      4 UNK        -0.4224 
     55 C         -77.6885   22.8842  -77.2205 C.2       3 UNK         0.4895 
     56 O         -76.6799   23.2671  -77.8119 O.2       3 UNK        -0.5091 
     57 CA        -79.0739   23.2116  -77.8052 C.3       3 UNK         0.0250 
     58 CB        -79.5848   22.0420  -78.6613 C.3       3 UNK        -0.1996 
     59 N         -80.0849   23.5637  -76.7997 N.am      3 UNK        -0.4254 
     60 C         -79.9712   24.5499  -75.8980 C.2       2 UNK         0.5004 
     61 O         -78.9627   25.2477  -75.7688 O.2       2 UNK        -0.5226 
     62 CA        -81.1607   24.7329  -74.9401 C.3       2 UNK         0.0269 
     63 CB        -81.0858   23.6957  -73.8067 C.3       2 UNK        -0.1926 
     64 N         -81.2253   26.0681  -74.3394 N.am      2 UNK        -0.4687 
     65 C         -81.3814   27.2243  -75.0027 C.2       1 UNK         0.5165 
     66 O         -81.5010   27.3070  -76.2263 O.2       1 UNK        -0.5079 
     67 H67       -84.6074   26.8510  -71.4175 H         1 UNK         0.0900 
     68 H68       -84.8822   28.5856  -71.2350 H         1 UNK         0.0900 
     69 H69       -83.3735   27.8668  -70.6692 H         1 UNK         0.0900 
     70 H70       -81.6680   28.2754  -72.0499 H         1 UNK         0.2959 
     71 H71       -82.0054   29.2429  -74.7301 H         1 UNK         0.1079 
     72 H72       -79.4911   29.1757  -74.8041 H         1 UNK         0.0837 
     73 H73       -79.4554   28.3779  -73.2610 H         1 UNK         0.0837 
     74 H74       -80.1937   31.2398  -70.7427 H         1 UNK         0.0685 
     75 H75       -80.6147   29.5743  -71.0136 H         1 UNK         0.0685 
     76 H76       -78.8752   27.8473  -71.0547 H         1 UNK         0.1434 
     77 H77       -74.8730   28.9472  -69.9694 H         1 UNK         0.1329 
     78 H78       -77.8057   31.9805  -70.7212 H         1 UNK         0.1335 
     79 H79       -75.6638   32.4186  -69.3604 H         1 UNK         0.0680 
     80 H80       -74.3674   31.2555  -69.4264 H         1 UNK         0.0680 
     81 H81       -73.0964   30.6082  -71.3879 H         1 UNK         0.1032 
     82 H82       -72.6736   31.6324  -72.7200 H         1 UNK         0.1032 
     83 H83       -75.3721   30.3667  -72.9850 H         1 UNK         0.0461 
     84 H84       -74.2658   28.6881  -75.3798 H         1 UNK         0.3453 
     85 H85       -74.1608   29.9451  -76.5849 H         1 UNK         0.3453 
     86 H86       -74.9499   28.4005  -72.4328 H         1 UNK         0.2984 
     87 H87       -71.8648   29.4126  -74.1163 H         1 UNK         0.0554 
     88 H88       -70.9744   29.6267  -71.8037 H         1 UNK         0.0847 
     89 H89       -70.5113   27.9322  -71.7919 H         1 UNK         0.0847 
     90 H90       -69.7123   29.0617  -72.8820 H         1 UNK         0.0847 
     91 H91       -71.1945   26.5199  -73.8967 H         1 UNK         0.3141 
     92 H92       -70.0964   26.2222  -77.0615 H         1 UNK         0.0743 
     93 H93       -69.7180   25.1442  -74.8197 H         1 UNK         0.0784 
     94 H94       -71.4174   24.6587  -74.7642 H         1 UNK         0.0784 
     95 H95       -70.3437   24.0023  -75.9901 H         1 UNK         0.0784 
     96 H96       -73.0194   25.9951  -76.7605 H         1 UNK         0.3213 
     97 H97       -73.4120   25.0367  -80.0429 H         1 UNK         0.0855 
     98 H98       -72.7840   22.6783  -79.4681 H         1 UNK         0.0814 
     99 H99       -74.5257   22.8777  -79.5465 H         1 UNK         0.0814 
    100 H100      -73.7189   22.7867  -77.9814 H         1 UNK         0.0814 
    101 H101      -75.2490   24.6922  -77.8641 H         1 UNK         0.3105 
    102 H102      -76.0612   28.1148  -77.4314 H         1 UNK         0.0547 
    103 H103      -77.4202   27.5720  -79.4151 H         1 UNK         0.0837 
    104 H104      -77.6578   25.9260  -78.8533 H         1 UNK         0.0837 
    105 H105      -78.3674   27.2746  -77.9645 H         1 UNK         0.0837 
    106 H106      -77.3077   25.9110  -76.2610 H         1 UNK         0.3020 
    107 H107      -75.0101   25.4081  -73.5392 H         1 UNK         0.1245 
    108 H108      -77.8400   26.5499  -73.8287 H         1 UNK         0.0781 
    109 H109      -76.5022   27.4162  -73.1459 H         1 UNK         0.0781 
    110 H110      -75.3238   26.6711  -70.7078 H         1 UNK         0.0836 
    111 H111      -76.5458   26.3786  -69.4960 H         1 UNK         0.0836 
    112 H112      -77.4601   24.2149  -74.6481 H         1 UNK         0.3022 
    113 H113      -75.7733   21.3850  -75.9476 H         1 UNK         0.0747 
    114 H114      -77.2668   20.0722  -74.4557 H         1 UNK         0.0793 
    115 H115      -75.9267   20.7355  -73.5364 H         1 UNK         0.0793 
    116 H116      -77.5150   21.4803  -73.4211 H         1 UNK         0.0793 
    117 H117      -78.5482   21.9567  -75.6398 H         1 UNK         0.3047 
    118 H118      -78.9560   24.0775  -78.4575 H         1 UNK         0.0822 
    119 H119      -80.5123   22.2994  -79.1733 H         1 UNK         0.0807 
    120 H120      -79.7676   21.1495  -78.0616 H         1 UNK         0.0807 
    121 H121      -78.8577   21.7748  -79.4298 H         1 UNK         0.0807 
    122 H122      -80.9404   23.0269  -76.8224 H         1 UNK         0.2946 
    123 H123      -82.0822   24.5813  -75.5066 H         1 UNK         0.1144 
    124 H124      -81.9438   23.7748  -73.1387 H         1 UNK         0.0793 
    125 H125      -80.1821   23.8192  -73.2074 H         1 UNK         0.0793 
    126 H126      -81.0802   22.6779  -74.1988 H         1 UNK         0.0793 
    127 H127      -81.1382   26.1108  -73.3353 H         1 UNK         0.2896 
@<TRIPOS>BOND
     1    1    2 1    
     2    1   67 1    
     3    1   68 1    
     4    1   69 1    
     5    2    3 2    
     6    2    4 am   BACKBONE|DICT|INTERRES
     7    4    5 1    
     8    4   70 1    
     9    5    6 1    
    10    5   65 1    
    11    5   71 1    
    12    6    7 1    
    13    6   72 1    
    14    6   73 1    
    15    7    8 1    
    16    8    9 1    
    17    8   74 1    
    18    8   75 1    
    19    9   10 ar   
    20    9   14 ar   
    21   10   11 ar   
    22   10   76 1    
    23   11   12 ar   
    24   11   48 1    
    25   12   13 ar   
    26   12   77 1    
    27   13   14 ar   
    28   13   15 1    
    29   14   78 1    
    30   15   16 1    
    31   15   79 1    
    32   15   80 1    
    33   16   17 1    
    34   17   18 1    
    35   17   81 1    
    36   17   82 1    
    37   18   19 1    
    38   18   22 1    
    39   18   83 1    
    40   19   20 am   BACKBONE|DICT|INTERRES
    41   19   21 2    
    42   20   84 1    
    43   20   85 1    
    44   22   23 am   BACKBONE|DICT|INTERRES
    45   22   86 1    
    46   23   24 2    
    47   23   25 1    
    48   25   26 1    
    49   25   27 1    
    50   25   87 1    
    51   26   88 1    
    52   26   89 1    
    53   26   90 1    
    54   27   28 am   BACKBONE|DICT|INTERRES
    55   27   91 1    
    56   28   29 2    
    57   28   30 1    
    58   30   31 1    
    59   30   32 1    
    60   30   92 1    
    61   31   93 1    
    62   31   94 1    
    63   31   95 1    
    64   32   33 am   BACKBONE|DICT|INTERRES
    65   32   96 1    
    66   33   34 2    
    67   33   35 1    
    68   35   36 1    
    69   35   37 1    
    70   35   97 1    
    71   36   98 1    
    72   36   99 1    
    73   36  100 1    
    74   37   38 am   BACKBONE|DICT|INTERRES
    75   37  101 1    
    76   38   39 2    
    77   38   40 1    
    78   40   41 1    
    79   40   42 1    
    80   40  102 1    
    81   41  103 1    
    82   41  104 1    
    83   41  105 1    
    84   42   43 am   BACKBONE|DICT|INTERRES
    85   42  106 1    
    86   43   44 2    
    87   43   45 1    
    88   45   46 1    
    89   45   49 1    
    90   45  107 1    
    91   46   47 1    
    92   46  108 1    
    93   46  109 1    
    94   47   48 1    
    95   48  110 1    
    96   48  111 1    
    97   49   50 am   BACKBONE|DICT|INTERRES
    98   49  112 1    
    99   50   51 2    
   100   50   52 1    
   101   52   53 1    
   102   52   54 1    
   103   52  113 1    
   104   53  114 1    
   105   53  115 1    
   106   53  116 1    
   107   54   55 am   BACKBONE|DICT|INTERRES
   108   54  117 1    
   109   55   56 2    
   110   55   57 1    
   111   57   58 1    
   112   57   59 1    
   113   57  118 1    
   114   58  119 1    
   115   58  120 1    
   116   58  121 1    
   117   59   60 am   BACKBONE|DICT|INTERRES
   118   59  122 1    
   119   60   61 2    
   120   60   62 1    
   121   62   63 1    
   122   62   64 1    
   123   62  123 1    
   124   63  124 1    
   125   63  125 1    
   126   63  126 1    
   127   64   65 am   BACKBONE|DICT|INTERRES
   128   64  127 1    
   129   65   66 2    
@<TRIPOS>SUBSTRUCTURE
     1 UNK         1 GROUP             0       ****    0 ROOT    
