@<TRIPOS>MOLECULE
3R135
127   129    1
SMALL
USER_CHARGES


@<TRIPOS>ATOM
      1 CA        -75.7262   22.2948  -71.6442 C.3       0 UNK        -0.1998 
      2 C         -77.0204   23.0004  -71.2661 C.2       0 UNK         0.4909 
      3 O         -78.0002   22.3383  -70.9233 O.2       0 UNK        -0.5240 
      4 N         -77.0286   24.3378  -71.3169 N.am      1 UNK        -0.4739 
      5 CA        -78.1974   25.1701  -71.0269 C.3       1 UNK         0.0864 
      6 C6        -77.7631   26.5786  -70.5487 C.3       11 UNK        -0.0881 
      7 S7        -79.1008   27.4611  -69.6752 S.3       11 UNK        -0.2682 
      8 C8        -78.5912   29.2053  -69.8860 C.3       11 UNK         0.0289 
      9 C9        -78.6480   29.7614  -71.3120 C.ar      11 UNK        -0.0687 
     10 C10       -79.3047   29.1031  -72.3605 C.ar      11 UNK        -0.0823 
     11 C11       -79.3009   29.6324  -73.6538 C.ar      11 UNK        -0.0830 
     12 C12       -78.6712   30.8564  -73.8923 C.ar      11 UNK        -0.1021 
     13 C13       -78.0127   31.5277  -72.8593 C.ar      11 UNK        -0.0753 
     14 C14       -78.0115   30.9794  -71.5741 C.ar      11 UNK        -0.0933 
     15 C15       -77.2997   32.8394  -73.1455 C.3       11 UNK         0.0166 
     16 S16       -75.7076   32.5624  -73.9872 S.3       11 UNK        -0.2615 
     17 C17       -74.4922   32.5872  -72.6170 C.3       11 UNK        -0.0865 
     18 CA        -73.7421   31.2458  -72.3723 C.3       10 UNK         0.0862 
     19 C         -74.5195   30.2772  -71.4316 C.2       10 UNK         0.5551 
     20 N         -74.7213   29.0109  -71.7733 N.am      10 UNK        -0.7319 
     21 O         -74.9225   30.6801  -70.3431 O.2       10 UNK        -0.5018 
     22 N         -73.2669   30.6520  -73.6308 N.am      10 UNK        -0.4509 
     23 C         -72.1963   29.8644  -73.7696 C.2       10 UNK         0.4899 
     24 O         -71.3911   29.6144  -72.8702 O.2       10 UNK        -0.4839 
     25 CA        -71.9990   29.2498  -75.1674 C.3       9 UNK         0.0222 
     26 CB        -70.7530   29.8380  -75.8491 C.3       9 UNK        -0.1966 
     27 N         -71.9020   27.7858  -75.1622 N.am      9 UNK        -0.4218 
     28 C         -72.7277   26.9322  -74.5414 C.2       9 UNK         0.5020 
     29 O         -73.6706   27.2778  -73.8269 O.2       9 UNK        -0.5274 
     30 CA        -72.4846   25.4364  -74.8106 C.3       8 UNK         0.0270 
     31 CB        -73.3348   24.5282  -73.9012 C.3       8 UNK        -0.1976 
     32 N         -72.7722   25.1024  -76.2068 N.am      8 UNK        -0.4313 
     33 C         -71.9459   25.3097  -77.2411 C.2       8 UNK         0.5041 
     34 O         -70.8336   25.8279  -77.1274 O.2       8 UNK        -0.5577 
     35 CA        -72.4513   24.8923  -78.6296 C.3       7 UNK         0.0284 
     36 CB        -72.4936   23.3601  -78.7584 C.3       7 UNK        -0.1958 
     37 N         -73.7865   25.4392  -78.8672 N.am      7 UNK        -0.4454 
     38 C         -74.0691   26.4568  -79.6926 C.2       7 UNK         0.5089 
     39 O         -73.2475   26.9840  -80.4433 O.2       7 UNK        -0.5125 
     40 CA        -75.5152   26.9948  -79.6682 C.3       6 UNK         0.0408 
     41 CB        -76.3626   26.3096  -80.7513 C.3       6 UNK        -0.1791 
     42 N         -76.1700   26.8269  -78.3681 N.am      6 UNK        -0.4762 
     43 C         -75.7598   27.3978  -77.2252 C.2       6 UNK         0.5007 
     44 O         -74.8745   28.2517  -77.1763 O.2       6 UNK        -0.5032 
     45 CA        -76.4020   26.9057  -75.9099 C.3       5 UNK         0.0783 
     46 C46       -77.2477   28.0057  -75.2320 C.3       11 UNK        -0.0857 
     47 S47       -78.7678   28.4617  -76.1431 S.3       11 UNK        -0.2512 
     48 C48       -79.9386   28.8501  -74.7965 C.3       11 UNK         0.0225 
     49 N         -77.1120   25.6245  -75.9918 N.am      5 UNK        -0.4615 
     50 C         -76.5854   24.4503  -76.3657 C.2       4 UNK         0.5053 
     51 O         -75.4204   24.3199  -76.7456 O.2       4 UNK        -0.5105 
     52 CA        -77.4932   23.2098  -76.3183 C.3       4 UNK         0.0263 
     53 CB        -77.1088   22.3236  -75.1254 C.3       4 UNK        -0.1981 
     54 N         -78.9224   23.5173  -76.2343 N.am      4 UNK        -0.4224 
     55 C         -79.6664   24.0790  -77.1941 C.2       3 UNK         0.4895 
     56 O         -79.2230   24.3938  -78.2990 O.2       3 UNK        -0.5091 
     57 CA        -81.1461   24.3644  -76.8672 C.3       3 UNK         0.0250 
     58 CB        -82.0252   23.1337  -77.1636 C.3       3 UNK        -0.1996 
     59 N         -81.3918   24.8939  -75.5136 N.am      3 UNK        -0.4254 
     60 C         -81.2144   24.2926  -74.3269 C.2       2 UNK         0.5004 
     61 O         -80.8376   23.1265  -74.1894 O.2       2 UNK        -0.5226 
     62 CA        -81.4817   25.1527  -73.0780 C.3       2 UNK         0.0269 
     63 CB        -82.8275   24.7683  -72.4429 C.3       2 UNK        -0.1926 
     64 N         -80.4256   25.0537  -72.0620 N.am      2 UNK        -0.4687 
     65 C         -79.1123   25.2391  -72.2670 C.2       1 UNK         0.5165 
     66 O         -78.6184   25.4986  -73.3662 O.2       1 UNK        -0.5079 
     67 H67       -74.9718   22.9927  -72.0048 H         1 UNK         0.0900 
     68 H68       -75.9107   21.5599  -72.4270 H         1 UNK         0.0900 
     69 H69       -75.3188   21.7729  -70.7789 H         1 UNK         0.0900 
     70 H70       -76.2122   24.8311  -71.6482 H         1 UNK         0.2959 
     71 H71       -78.7498   24.6945  -70.2126 H         1 UNK         0.1079 
     72 H72       -76.9324   26.4934  -69.8461 H         1 UNK         0.0837 
     73 H73       -77.3894   27.1773  -71.3820 H         1 UNK         0.0837 
     74 H74       -77.5771   29.3138  -69.4973 H         1 UNK         0.0685 
     75 H75       -79.2307   29.8231  -69.2543 H         1 UNK         0.0685 
     76 H76       -79.8033   28.1618  -72.1855 H         1 UNK         0.1434 
     77 H77       -78.6598   31.2676  -74.8926 H         1 UNK         0.1329 
     78 H78       -77.4976   31.4962  -70.7749 H         1 UNK         0.1335 
     79 H79       -77.1579   33.4183  -72.2320 H         1 UNK         0.0680 
     80 H80       -77.9299   33.4517  -73.7923 H         1 UNK         0.0680 
     81 H81       -73.7555   33.3499  -72.8737 H         1 UNK         0.1032 
     82 H82       -74.9576   32.9523  -71.6999 H         1 UNK         0.1032 
     83 H83       -72.8517   31.5058  -71.7965 H         1 UNK         0.0461 
     84 H84       -74.3400   28.6195  -72.6297 H         1 UNK         0.3453 
     85 H85       -75.2129   28.4132  -71.1322 H         1 UNK         0.3453 
     86 H86       -73.8827   30.7876  -74.4202 H         1 UNK         0.2984 
     87 H87       -72.8657   29.5009  -75.7817 H         1 UNK         0.0554 
     88 H88       -70.6550   29.4825  -76.8751 H         1 UNK         0.0847 
     89 H89       -69.8399   29.5755  -75.3131 H         1 UNK         0.0847 
     90 H90       -70.8063   30.9269  -75.8885 H         1 UNK         0.0847 
     91 H91       -71.1982   27.3742  -75.7662 H         1 UNK         0.3141 
     92 H92       -71.4332   25.2282  -74.6008 H         1 UNK         0.0743 
     93 H93       -74.4032   24.6764  -74.0626 H         1 UNK         0.0784 
     94 H94       -73.1139   23.4750  -74.0750 H         1 UNK         0.0784 
     95 H95       -73.1318   24.7331  -72.8492 H         1 UNK         0.0784 
     96 H96       -73.6942   24.7104  -76.3905 H         1 UNK         0.3213 
     97 H97       -71.7440   25.2739  -79.3692 H         1 UNK         0.0855 
     98 H98       -73.1974   22.9091  -78.0575 H         1 UNK         0.0814 
     99 H99       -71.5124   22.9250  -78.5632 H         1 UNK         0.0814 
    100 H100      -72.7869   23.0585  -79.7640 H         1 UNK         0.0814 
    101 H101      -74.5284   25.0881  -78.2685 H         1 UNK         0.3105 
    102 H102      -75.4754   28.0638  -79.8870 H         1 UNK         0.0547 
    103 H103      -75.9120   26.4358  -81.7368 H         1 UNK         0.0837 
    104 H104      -76.4592   25.2380  -80.5716 H         1 UNK         0.0837 
    105 H105      -77.3657   26.7336  -80.7986 H         1 UNK         0.0837 
    106 H106      -76.9214   26.1524  -78.3154 H         1 UNK         0.3020 
    107 H107      -75.5645   26.7078  -75.2464 H         1 UNK         0.1245 
    108 H108      -76.6513   28.9084  -75.0837 H         1 UNK         0.0781 
    109 H109      -77.5128   27.6731  -74.2286 H         1 UNK         0.0781 
    110 H110      -80.3523   27.9106  -74.4322 H         1 UNK         0.0836 
    111 H111      -80.7751   29.4202  -75.2024 H         1 UNK         0.0836 
    112 H112      -78.0529   25.6253  -75.6208 H         1 UNK         0.3022 
    113 H113      -77.3209   22.6477  -77.2383 H         1 UNK         0.0747 
    114 H114      -77.6644   21.3857  -75.1311 H         1 UNK         0.0793 
    115 H115      -76.0470   22.0730  -75.1435 H         1 UNK         0.0793 
    116 H116      -77.3134   22.8287  -74.1817 H         1 UNK         0.0793 
    117 H117      -79.3949   23.2892  -75.3620 H         1 UNK         0.3047 
    118 H118      -81.4600   25.1568  -77.5488 H         1 UNK         0.0822 
    119 H119      -83.0810   23.3529  -77.0043 H         1 UNK         0.0807 
    120 H120      -81.7618   22.2804  -76.5379 H         1 UNK         0.0807 
    121 H121      -81.9131   22.8182  -78.2018 H         1 UNK         0.0807 
    122 H122      -81.6958   25.8576  -75.5018 H         1 UNK         0.2946 
    123 H123      -81.5371   26.1997  -73.3784 H         1 UNK         0.1144 
    124 H124      -83.0733   25.4195  -71.6037 H         1 UNK         0.0793 
    125 H125      -82.8212   23.7394  -72.0803 H         1 UNK         0.0793 
    126 H126      -83.6405   24.8535  -73.1655 H         1 UNK         0.0793 
    127 H127      -80.7350   24.8348  -71.1263 H         1 UNK         0.2896 
@<TRIPOS>BOND
     1    1    2 1    
     2    1   67 1    
     3    1   68 1    
     4    1   69 1    
     5    2    3 2    
     6    2    4 am   BACKBONE|DICT|INTERRES
     7    4    5 1    
     8    4   70 1    
     9    5    6 1    
    10    5   65 1    
    11    5   71 1    
    12    6    7 1    
    13    6   72 1    
    14    6   73 1    
    15    7    8 1    
    16    8    9 1    
    17    8   74 1    
    18    8   75 1    
    19    9   10 ar   
    20    9   14 ar   
    21   10   11 ar   
    22   10   76 1    
    23   11   12 ar   
    24   11   48 1    
    25   12   13 ar   
    26   12   77 1    
    27   13   14 ar   
    28   13   15 1    
    29   14   78 1    
    30   15   16 1    
    31   15   79 1    
    32   15   80 1    
    33   16   17 1    
    34   17   18 1    
    35   17   81 1    
    36   17   82 1    
    37   18   19 1    
    38   18   22 1    
    39   18   83 1    
    40   19   20 am   BACKBONE|DICT|INTERRES
    41   19   21 2    
    42   20   84 1    
    43   20   85 1    
    44   22   23 am   BACKBONE|DICT|INTERRES
    45   22   86 1    
    46   23   24 2    
    47   23   25 1    
    48   25   26 1    
    49   25   27 1    
    50   25   87 1    
    51   26   88 1    
    52   26   89 1    
    53   26   90 1    
    54   27   28 am   BACKBONE|DICT|INTERRES
    55   27   91 1    
    56   28   29 2    
    57   28   30 1    
    58   30   31 1    
    59   30   32 1    
    60   30   92 1    
    61   31   93 1    
    62   31   94 1    
    63   31   95 1    
    64   32   33 am   BACKBONE|DICT|INTERRES
    65   32   96 1    
    66   33   34 2    
    67   33   35 1    
    68   35   36 1    
    69   35   37 1    
    70   35   97 1    
    71   36   98 1    
    72   36   99 1    
    73   36  100 1    
    74   37   38 am   BACKBONE|DICT|INTERRES
    75   37  101 1    
    76   38   39 2    
    77   38   40 1    
    78   40   41 1    
    79   40   42 1    
    80   40  102 1    
    81   41  103 1    
    82   41  104 1    
    83   41  105 1    
    84   42   43 am   BACKBONE|DICT|INTERRES
    85   42  106 1    
    86   43   44 2    
    87   43   45 1    
    88   45   46 1    
    89   45   49 1    
    90   45  107 1    
    91   46   47 1    
    92   46  108 1    
    93   46  109 1    
    94   47   48 1    
    95   48  110 1    
    96   48  111 1    
    97   49   50 am   BACKBONE|DICT|INTERRES
    98   49  112 1    
    99   50   51 2    
   100   50   52 1    
   101   52   53 1    
   102   52   54 1    
   103   52  113 1    
   104   53  114 1    
   105   53  115 1    
   106   53  116 1    
   107   54   55 am   BACKBONE|DICT|INTERRES
   108   54  117 1    
   109   55   56 2    
   110   55   57 1    
   111   57   58 1    
   112   57   59 1    
   113   57  118 1    
   114   58  119 1    
   115   58  120 1    
   116   58  121 1    
   117   59   60 am   BACKBONE|DICT|INTERRES
   118   59  122 1    
   119   60   61 2    
   120   60   62 1    
   121   62   63 1    
   122   62   64 1    
   123   62  123 1    
   124   63  124 1    
   125   63  125 1    
   126   63  126 1    
   127   64   65 am   BACKBONE|DICT|INTERRES
   128   64  127 1    
   129   65   66 2    
@<TRIPOS>SUBSTRUCTURE
     1 UNK         1 GROUP             0       ****    0 ROOT    
