@<TRIPOS>MOLECULE
3R135
127   129    1
SMALL
USER_CHARGES


@<TRIPOS>ATOM
      1 CA        -83.7884   27.8924  -73.1477 C.3       0 UNK        -0.1998 
      2 C         -82.6116   28.8015  -73.4879 C.2       0 UNK         0.4909 
      3 O         -82.8389   29.9434  -73.8829 O.2       0 UNK        -0.5240 
      4 N         -81.3457   28.3809  -73.3523 N.am      1 UNK        -0.4739 
      5 CA        -80.8110   27.0626  -72.9805 C.3       1 UNK         0.0864 
      6 C6        -81.2387   26.5086  -71.5883 C.3       11 UNK        -0.0881 
      7 S7        -81.1163   27.7332  -70.2375 S.3       11 UNK        -0.2682 
      8 C8        -79.3762   27.5759  -69.6965 C.3       11 UNK         0.0289 
      9 C9        -78.3466   28.1269  -70.6843 C.ar      11 UNK        -0.0687 
     10 C10       -78.6274   29.2282  -71.5036 C.ar      11 UNK        -0.0823 
     11 C11       -77.6919   29.6921  -72.4327 C.ar      11 UNK        -0.0830 
     12 C12       -76.4301   29.0928  -72.4814 C.ar      11 UNK        -0.1021 
     13 C13       -76.1202   28.0126  -71.6502 C.ar      11 UNK        -0.0753 
     14 C14       -77.0848   27.5290  -70.7622 C.ar      11 UNK        -0.0933 
     15 C15       -74.7589   27.3404  -71.7465 C.3       11 UNK         0.0166 
     16 S16       -73.5531   27.9481  -70.5187 S.3       11 UNK        -0.2615 
     17 C17       -73.4019   29.7395  -70.8727 C.3       11 UNK        -0.0865 
     18 CA        -72.3804   30.1095  -71.9826 C.3       10 UNK         0.0862 
     19 C         -70.9010   29.8759  -71.5528 C.2       10 UNK         0.5551 
     20 N         -70.0923   29.1291  -72.2967 N.am      10 UNK        -0.7319 
     21 O         -70.4719   30.4020  -70.5288 O.2       10 UNK        -0.5018 
     22 N         -72.7503   29.4961  -73.2626 N.am      10 UNK        -0.4509 
     23 C         -72.5009   29.9961  -74.4766 C.2       10 UNK         0.4899 
     24 O         -71.9840   31.0965  -74.6739 O.2       10 UNK        -0.4839 
     25 CA        -72.9103   29.1015  -75.6649 C.3       9 UNK         0.0222 
     26 CB        -72.1933   29.4813  -76.9766 C.3       9 UNK        -0.1966 
     27 N         -72.7713   27.6593  -75.4070 N.am      9 UNK        -0.4218 
     28 C         -71.6538   27.0092  -75.0422 C.2       9 UNK         0.5020 
     29 O         -70.5845   27.5652  -74.7893 O.2       9 UNK        -0.5274 
     30 CA        -71.7418   25.4815  -74.9303 C.3       8 UNK         0.0270 
     31 CB        -72.1758   25.0612  -73.5159 C.3       8 UNK        -0.1976 
     32 N         -72.6674   24.9208  -75.9180 N.am      8 UNK        -0.4313 
     33 C         -72.2930   24.4143  -77.0996 C.2       8 UNK         0.5041 
     34 O         -71.1235   24.3494  -77.4816 O.2       8 UNK        -0.5577 
     35 CA        -73.4075   23.8658  -78.0033 C.3       7 UNK         0.0284 
     36 CB        -73.9838   22.5595  -77.4302 C.3       7 UNK        -0.1958 
     37 N         -74.4954   24.8166  -78.2340 N.am      7 UNK        -0.4454 
     38 C         -74.4107   25.9160  -78.9966 C.2       7 UNK         0.5089 
     39 O         -73.3726   26.3042  -79.5319 O.2       7 UNK        -0.5125 
     40 CA        -75.7108   26.7077  -79.2131 C.3       6 UNK         0.0408 
     41 CB        -76.6301   25.9858  -80.2127 C.3       6 UNK        -0.1791 
     42 N         -76.4159   26.9012  -77.9452 N.am      6 UNK        -0.4762 
     43 C         -76.3713   28.0289  -77.2212 C.2       6 UNK         0.5007 
     44 O         -75.8548   29.0684  -77.6305 O.2       6 UNK        -0.5032 
     45 CA        -76.9546   27.9956  -75.7878 C.3       5 UNK         0.0783 
     46 C46       -78.1220   28.9971  -75.5762 C.3       11 UNK        -0.0857 
     47 S47       -77.5029   30.6501  -75.0933 S.3       11 UNK        -0.2512 
     48 C48       -78.0652   30.8458  -73.3625 C.3       11 UNK         0.0225 
     49 N         -77.2813   26.6426  -75.3198 N.am      5 UNK        -0.4615 
     50 C         -76.3489   25.7590  -74.9359 C.2       4 UNK         0.5053 
     51 O         -75.1397   25.9907  -74.9778 O.2       4 UNK        -0.5105 
     52 CA        -76.8246   24.3717  -74.4795 C.3       4 UNK         0.0263 
     53 CB        -77.2695   24.4156  -73.0094 C.3       4 UNK        -0.1981 
     54 N         -77.9026   23.8029  -75.2900 N.am      4 UNK        -0.4224 
     55 C         -77.9189   23.6456  -76.6195 C.2       3 UNK         0.4895 
     56 O         -77.0111   24.0237  -77.3583 O.2       3 UNK        -0.5091 
     57 CA        -79.1618   22.9837  -77.2444 C.3       3 UNK         0.0250 
     58 CB        -79.0375   21.4481  -77.2303 C.3       3 UNK        -0.1996 
     59 N         -80.4380   23.4398  -76.6709 N.am      3 UNK        -0.4254 
     60 C         -80.9041   23.2678  -75.4258 C.2       2 UNK         0.5004 
     61 O         -80.3458   22.5910  -74.5594 O.2       2 UNK        -0.5226 
     62 CA        -82.1541   24.0752  -75.0497 C.3       2 UNK         0.0269 
     63 CB        -83.2770   23.1551  -74.5424 C.3       2 UNK        -0.1926 
     64 N         -81.8435   25.0734  -74.0217 N.am      2 UNK        -0.4687 
     65 C         -80.9699   26.0838  -74.1571 C.2       1 UNK         0.5165 
     66 O         -80.2948   26.2778  -75.1709 O.2       1 UNK        -0.5079 
     67 H67       -83.7219   26.9303  -73.6490 H         1 UNK         0.0900 
     68 H68       -84.7228   28.3540  -73.4664 H         1 UNK         0.0900 
     69 H69       -83.8549   27.7381  -72.0717 H         1 UNK         0.0900 
     70 H70       -80.6297   29.0411  -73.6147 H         1 UNK         0.2959 
     71 H71       -79.7327   27.2071  -72.9213 H         1 UNK         0.1079 
     72 H72       -80.6268   25.6429  -71.3275 H         1 UNK         0.0837 
     73 H73       -82.2664   26.1470  -71.5965 H         1 UNK         0.0837 
     74 H74       -79.2611   28.1121  -68.7539 H         1 UNK         0.0685 
     75 H75       -79.1731   26.5260  -69.4800 H         1 UNK         0.0685 
     76 H76       -79.5919   29.7120  -71.4370 H         1 UNK         0.1434 
     77 H77       -75.6883   29.4664  -73.1726 H         1 UNK         0.1329 
     78 H78       -76.8484   26.6855  -70.1279 H         1 UNK         0.1335 
     79 H79       -74.3604   27.4445  -72.7539 H         1 UNK         0.0680 
     80 H80       -74.8748   26.2677  -71.5918 H         1 UNK         0.0680 
     81 H81       -74.3800   30.1493  -71.1192 H         1 UNK         0.1032 
     82 H82       -73.1294   30.2370  -69.9401 H         1 UNK         0.1032 
     83 H83       -72.4588   31.1904  -72.1141 H         1 UNK         0.0461 
     84 H84       -69.1382   28.9996  -72.0012 H         1 UNK         0.3453 
     85 H85       -70.4118   28.6981  -73.1576 H         1 UNK         0.3453 
     86 H86       -73.1261   28.5637  -73.1986 H         1 UNK         0.2984 
     87 H87       -73.9736   29.2856  -75.8079 H         1 UNK         0.0554 
     88 H88       -72.5357   28.8622  -77.8063 H         1 UNK         0.0847 
     89 H89       -71.1121   29.3660  -76.8938 H         1 UNK         0.0847 
     90 H90       -72.3923   30.5189  -77.2474 H         1 UNK         0.0847 
     91 H91       -73.6161   27.1046  -75.5077 H         1 UNK         0.3141 
     92 H92       -70.7370   25.0865  -75.0956 H         1 UNK         0.0743 
     93 H93       -72.1173   23.9796  -73.3939 H         1 UNK         0.0784 
     94 H94       -71.5301   25.5075  -72.7580 H         1 UNK         0.0784 
     95 H95       -73.1979   25.3631  -73.2931 H         1 UNK         0.0784 
     96 H96       -73.6567   24.9894  -75.6987 H         1 UNK         0.3213 
     97 H97       -72.9589   23.6344  -78.9721 H         1 UNK         0.0855 
     98 H98       -73.1949   21.8258  -77.2588 H         1 UNK         0.0814 
     99 H99       -74.7006   22.1094  -78.1173 H         1 UNK         0.0814 
    100 H100      -74.4929   22.7211  -76.4795 H         1 UNK         0.0814 
    101 H101      -75.4093   24.5515  -77.8686 H         1 UNK         0.3105 
    102 H102      -75.4438   27.6711  -79.6525 H         1 UNK         0.0547 
    103 H103      -76.1259   25.8412  -81.1691 H         1 UNK         0.0837 
    104 H104      -76.9364   25.0023  -79.8555 H         1 UNK         0.0837 
    105 H105      -77.5323   26.5654  -80.4075 H         1 UNK         0.0837 
    106 H106      -76.8368   26.0754  -77.5350 H         1 UNK         0.3020 
    107 H107      -76.1288   28.3284  -75.1582 H         1 UNK         0.1245 
    108 H108      -78.7908   28.6433  -74.7927 H         1 UNK         0.0781 
    109 H109      -78.7424   29.0868  -76.4699 H         1 UNK         0.0781 
    110 H110      -79.1464   30.9918  -73.3746 H         1 UNK         0.0836 
    111 H111      -77.6386   31.7658  -72.9609 H         1 UNK         0.0836 
    112 H112      -78.2626   26.3826  -75.3073 H         1 UNK         0.3022 
    113 H113      -75.9738   23.6925  -74.5589 H         1 UNK         0.0747 
    114 H114      -77.5681   23.4288  -72.6551 H         1 UNK         0.0793 
    115 H115      -76.4584   24.7537  -72.3655 H         1 UNK         0.0793 
    116 H116      -78.1106   25.0933  -72.8591 H         1 UNK         0.0793 
    117 H117      -78.7051   23.4299  -74.7879 H         1 UNK         0.3047 
    118 H118      -79.1820   23.2977  -78.2894 H         1 UNK         0.0822 
    119 H119      -78.9784   21.0484  -76.2176 H         1 UNK         0.0807 
    120 H120      -78.1361   21.1284  -77.7550 H         1 UNK         0.0807 
    121 H121      -79.8857   20.9774  -77.7274 H         1 UNK         0.0807 
    122 H122      -80.9611   24.0608  -77.2734 H         1 UNK         0.2946 
    123 H123      -82.5190   24.6044  -75.9330 H         1 UNK         0.1144 
    124 H124      -83.5347   22.4056  -75.2920 H         1 UNK         0.0793 
    125 H125      -82.9857   22.6219  -73.6364 H         1 UNK         0.0793 
    126 H126      -84.1846   23.7182  -74.3239 H         1 UNK         0.0793 
    127 H127      -82.3242   24.9624  -73.1415 H         1 UNK         0.2896 
@<TRIPOS>BOND
     1    1    2 1    
     2    1   67 1    
     3    1   68 1    
     4    1   69 1    
     5    2    3 2    
     6    2    4 am   BACKBONE|DICT|INTERRES
     7    4    5 1    
     8    4   70 1    
     9    5    6 1    
    10    5   65 1    
    11    5   71 1    
    12    6    7 1    
    13    6   72 1    
    14    6   73 1    
    15    7    8 1    
    16    8    9 1    
    17    8   74 1    
    18    8   75 1    
    19    9   10 ar   
    20    9   14 ar   
    21   10   11 ar   
    22   10   76 1    
    23   11   12 ar   
    24   11   48 1    
    25   12   13 ar   
    26   12   77 1    
    27   13   14 ar   
    28   13   15 1    
    29   14   78 1    
    30   15   16 1    
    31   15   79 1    
    32   15   80 1    
    33   16   17 1    
    34   17   18 1    
    35   17   81 1    
    36   17   82 1    
    37   18   19 1    
    38   18   22 1    
    39   18   83 1    
    40   19   20 am   BACKBONE|DICT|INTERRES
    41   19   21 2    
    42   20   84 1    
    43   20   85 1    
    44   22   23 am   BACKBONE|DICT|INTERRES
    45   22   86 1    
    46   23   24 2    
    47   23   25 1    
    48   25   26 1    
    49   25   27 1    
    50   25   87 1    
    51   26   88 1    
    52   26   89 1    
    53   26   90 1    
    54   27   28 am   BACKBONE|DICT|INTERRES
    55   27   91 1    
    56   28   29 2    
    57   28   30 1    
    58   30   31 1    
    59   30   32 1    
    60   30   92 1    
    61   31   93 1    
    62   31   94 1    
    63   31   95 1    
    64   32   33 am   BACKBONE|DICT|INTERRES
    65   32   96 1    
    66   33   34 2    
    67   33   35 1    
    68   35   36 1    
    69   35   37 1    
    70   35   97 1    
    71   36   98 1    
    72   36   99 1    
    73   36  100 1    
    74   37   38 am   BACKBONE|DICT|INTERRES
    75   37  101 1    
    76   38   39 2    
    77   38   40 1    
    78   40   41 1    
    79   40   42 1    
    80   40  102 1    
    81   41  103 1    
    82   41  104 1    
    83   41  105 1    
    84   42   43 am   BACKBONE|DICT|INTERRES
    85   42  106 1    
    86   43   44 2    
    87   43   45 1    
    88   45   46 1    
    89   45   49 1    
    90   45  107 1    
    91   46   47 1    
    92   46  108 1    
    93   46  109 1    
    94   47   48 1    
    95   48  110 1    
    96   48  111 1    
    97   49   50 am   BACKBONE|DICT|INTERRES
    98   49  112 1    
    99   50   51 2    
   100   50   52 1    
   101   52   53 1    
   102   52   54 1    
   103   52  113 1    
   104   53  114 1    
   105   53  115 1    
   106   53  116 1    
   107   54   55 am   BACKBONE|DICT|INTERRES
   108   54  117 1    
   109   55   56 2    
   110   55   57 1    
   111   57   58 1    
   112   57   59 1    
   113   57  118 1    
   114   58  119 1    
   115   58  120 1    
   116   58  121 1    
   117   59   60 am   BACKBONE|DICT|INTERRES
   118   59  122 1    
   119   60   61 2    
   120   60   62 1    
   121   62   63 1    
   122   62   64 1    
   123   62  123 1    
   124   63  124 1    
   125   63  125 1    
   126   63  126 1    
   127   64   65 am   BACKBONE|DICT|INTERRES
   128   64  127 1    
   129   65   66 2    
@<TRIPOS>SUBSTRUCTURE
     1 UNK         1 GROUP             0       ****    0 ROOT    
