@<TRIPOS>MOLECULE
3R135
127   129    1
SMALL
USER_CHARGES


@<TRIPOS>ATOM
      1 CA        -75.9386   29.0772  -75.8176 C.3       0 UNK        -0.1998 
      2 C         -77.0138   28.3530  -75.0265 C.2       0 UNK         0.4909 
      3 O         -76.8933   27.1485  -74.8048 O.2       0 UNK        -0.5240 
      4 N         -78.0527   29.0826  -74.6011 N.am      1 UNK        -0.4739 
      5 CA        -79.2157   28.5408  -73.8975 C.3       1 UNK         0.0864 
      6 C6        -80.0057   29.6672  -73.1810 C.3       11 UNK        -0.0881 
      7 S7        -81.1475   29.0348  -71.9019 S.3       11 UNK        -0.2682 
      8 C8        -80.1728   29.2560  -70.3776 C.3       11 UNK         0.0289 
      9 C9        -78.8771   28.4612  -70.4245 C.ar      11 UNK        -0.0687 
     10 C10       -78.9059   27.0667  -70.3429 C.ar      11 UNK        -0.0823 
     11 C11       -77.7276   26.3232  -70.4566 C.ar      11 UNK        -0.0830 
     12 C12       -76.5089   26.9902  -70.6316 C.ar      11 UNK        -0.1021 
     13 C13       -76.4645   28.3886  -70.6877 C.ar      11 UNK        -0.0753 
     14 C14       -77.6529   29.1165  -70.5806 C.ar      11 UNK        -0.0933 
     15 C15       -75.1367   29.1217  -70.8362 C.3       11 UNK         0.0166 
     16 S16       -75.0459   30.0631  -72.3923 S.3       11 UNK        -0.2615 
     17 C17       -73.3595   30.7467  -72.2730 C.3       11 UNK        -0.0865 
     18 CA        -73.0621   31.7957  -73.3764 C.3       10 UNK         0.0862 
     19 C         -71.7046   32.5001  -73.1108 C.2       10 UNK         0.5551 
     20 N         -71.7229   33.6520  -72.4539 N.am      10 UNK        -0.7319 
     21 O         -70.6374   31.9926  -73.4490 O.2       10 UNK        -0.5018 
     22 N         -73.1238   31.2134  -74.7266 N.am      10 UNK        -0.4509 
     23 C         -73.2604   31.9341  -75.8498 C.2       10 UNK         0.4899 
     24 O         -73.3782   33.1609  -75.8510 O.2       10 UNK        -0.4839 
     25 CA        -73.3307   31.1759  -77.1953 C.3       9 UNK         0.0222 
     26 CB        -72.8728   32.0379  -78.3927 C.3       9 UNK        -0.1966 
     27 N         -72.6579   29.8710  -77.1900 N.am      9 UNK        -0.4218 
     28 C         -71.3460   29.6330  -77.0464 C.2       9 UNK         0.5020 
     29 O         -70.4910   30.5167  -76.9632 O.2       9 UNK        -0.5274 
     30 CA        -70.9258   28.1471  -76.9849 C.3       8 UNK         0.0270 
     31 CB        -69.5271   27.9612  -76.3591 C.3       8 UNK        -0.1976 
     32 N         -71.8897   27.2599  -76.3120 N.am      8 UNK        -0.4313 
     33 C         -72.4146   27.4063  -75.0873 C.2       8 UNK         0.5041 
     34 O         -72.2747   28.4191  -74.4026 O.2       8 UNK        -0.5577 
     35 CA        -73.2399   26.2251  -74.5474 C.3       7 UNK         0.0284 
     36 CB        -73.7541   26.4579  -73.1159 C.3       7 UNK        -0.1958 
     37 N         -74.3816   25.8797  -75.3936 N.am      7 UNK        -0.4454 
     38 C         -74.3316   25.1516  -76.5151 C.2       7 UNK         0.5089 
     39 O         -73.2799   24.8674  -77.0933 O.2       7 UNK        -0.5125 
     40 CA        -75.6853   24.6180  -77.0332 C.3       6 UNK         0.0408 
     41 CB        -75.5251   23.5263  -78.1098 C.3       6 UNK        -0.1791 
     42 N         -76.5563   24.1371  -75.9496 N.am      6 UNK        -0.4762 
     43 C         -76.2461   23.2535  -74.9842 C.2       6 UNK         0.5007 
     44 O         -75.1814   22.6376  -74.9176 O.2       6 UNK        -0.5032 
     45 CA        -77.3166   23.0214  -73.9078 C.3       5 UNK         0.0783 
     46 C46       -77.6404   24.3343  -73.1485 C.3       11 UNK        -0.0857 
     47 S47       -78.7443   24.0615  -71.7267 S.3       11 UNK        -0.2512 
     48 C48       -77.7792   24.8022  -70.3676 C.3       11 UNK         0.0225 
     49 N         -78.4914   22.4243  -74.5421 N.am      5 UNK        -0.4615 
     50 C         -78.6625   21.1103  -74.7416 C.2       4 UNK         0.5053 
     51 O         -77.8801   20.2516  -74.3335 O.2       4 UNK        -0.5105 
     52 CA        -79.9183   20.6607  -75.5140 C.3       4 UNK         0.0263 
     53 CB        -81.0025   20.1816  -74.5347 C.3       4 UNK        -0.1981 
     54 N         -80.4793   21.7089  -76.3678 N.am      4 UNK        -0.4224 
     55 C         -79.9408   22.1359  -77.5194 C.2       3 UNK         0.4895 
     56 O         -78.9653   21.6122  -78.0573 O.2       3 UNK        -0.5091 
     57 CA        -80.5836   23.3816  -78.1627 C.3       3 UNK         0.0250 
     58 CB        -81.6043   22.9687  -79.2353 C.3       3 UNK        -0.1996 
     59 N         -81.2292   24.2790  -77.1930 N.am      3 UNK        -0.4254 
     60 C         -80.5817   24.9053  -76.2007 C.2       2 UNK         0.5004 
     61 O         -79.3660   24.8089  -76.0214 O.2       2 UNK        -0.5226 
     62 CA        -81.4461   25.6823  -75.1937 C.3       2 UNK         0.0269 
     63 CB        -82.1439   24.7069  -74.2299 C.3       2 UNK        -0.1926 
     64 N         -80.6457   26.6157  -74.4005 N.am      2 UNK        -0.4687 
     65 C         -80.1061   27.7453  -74.8732 C.2       1 UNK         0.5165 
     66 O         -80.3107   28.1792  -76.0110 O.2       1 UNK        -0.5079 
     67 H67       -75.8444   28.6404  -76.8111 H         1 UNK         0.0900 
     68 H68       -74.9828   28.9849  -75.3048 H         1 UNK         0.0900 
     69 H69       -76.1641   30.1377  -75.9256 H         1 UNK         0.0900 
     70 H70       -78.1019   30.0620  -74.8394 H         1 UNK         0.2959 
     71 H71       -78.8307   27.8478  -73.1462 H         1 UNK         0.1079 
     72 H72       -79.3154   30.3664  -72.7065 H         1 UNK         0.0837 
     73 H73       -80.5755   30.2616  -73.8980 H         1 UNK         0.0837 
     74 H74       -79.9752   30.3185  -70.2263 H         1 UNK         0.0685 
     75 H75       -80.7681   28.9291  -69.5239 H         1 UNK         0.0685 
     76 H76       -79.8517   26.5571  -70.2175 H         1 UNK         0.1434 
     77 H77       -75.5929   26.4217  -70.7109 H         1 UNK         0.1329 
     78 H78       -77.6217   30.1960  -70.6376 H         1 UNK         0.1335 
     79 H79       -75.0111   29.8044  -69.9947 H         1 UNK         0.0680 
     80 H80       -74.3021   28.4204  -70.7946 H         1 UNK         0.0680 
     81 H81       -72.6385   29.9284  -72.3117 H         1 UNK         0.1032 
     82 H82       -73.2522   31.1993  -71.2852 H         1 UNK         0.1032 
     83 H83       -73.8457   32.5545  -73.3168 H         1 UNK         0.0461 
     84 H84       -72.5921   34.0729  -72.1641 H         1 UNK         0.3453 
     85 H85       -70.8509   34.1175  -72.2557 H         1 UNK         0.3453 
     86 H86       -72.9402   30.2150  -74.7789 H         1 UNK         0.2984 
     87 H87       -74.3870   30.9603  -77.3546 H         1 UNK         0.0554 
     88 H88       -73.4997   32.9240  -78.4999 H         1 UNK         0.0847 
     89 H89       -72.9369   31.4847  -79.3296 H         1 UNK         0.0847 
     90 H90       -71.8454   32.3835  -78.2757 H         1 UNK         0.0847 
     91 H91       -73.2626   29.0645  -77.2476 H         1 UNK         0.3141 
     92 H92       -70.8717   27.8085  -78.0206 H         1 UNK         0.0743 
     93 H93       -69.2294   26.9126  -76.3551 H         1 UNK         0.0784 
     94 H94       -69.4985   28.3224  -75.3302 H         1 UNK         0.0784 
     95 H95       -68.7675   28.5084  -76.9189 H         1 UNK         0.0784 
     96 H96       -72.1305   26.4012  -76.8032 H         1 UNK         0.3213 
     97 H97       -72.5654   25.3667  -74.5128 H         1 UNK         0.0855 
     98 H98       -74.5018   27.2500  -73.0885 H         1 UNK         0.0814 
     99 H99       -72.9445   26.7435  -72.4431 H         1 UNK         0.0814 
    100 H100      -74.2094   25.5551  -72.7093 H         1 UNK         0.0814 
    101 H101      -75.3013   26.1490  -75.0477 H         1 UNK         0.3105 
    102 H102      -76.1993   25.4663  -77.4872 H         1 UNK         0.0547 
    103 H103      -74.9714   23.9025  -78.9707 H         1 UNK         0.0837 
    104 H104      -74.9848   22.6598  -77.7273 H         1 UNK         0.0837 
    105 H105      -76.4942   23.1828  -78.4721 H         1 UNK         0.0837 
    106 H106      -77.4804   24.5654  -75.9140 H         1 UNK         0.3020 
    107 H107      -76.9002   22.3157  -73.1846 H         1 UNK         0.1245 
    108 H108      -78.1199   25.0637  -73.8000 H         1 UNK         0.0781 
    109 H109      -76.7202   24.8088  -72.8028 H         1 UNK         0.0781 
    110 H110      -76.7762   24.3726  -70.3581 H         1 UNK         0.0836 
    111 H111      -78.2387   24.5212  -69.4190 H         1 UNK         0.0836 
    112 H112      -79.1302   23.0802  -74.9742 H         1 UNK         0.3022 
    113 H113      -79.6311   19.8186  -76.1475 H         1 UNK         0.0747 
    114 H114      -81.8748   19.7974  -75.0639 H         1 UNK         0.0793 
    115 H115      -80.6281   19.3748  -73.9030 H         1 UNK         0.0793 
    116 H116      -81.3344   20.9841  -73.8745 H         1 UNK         0.0793 
    117 H117      -81.2972   22.1867  -76.0204 H         1 UNK         0.3047 
    118 H118      -79.7821   23.9424  -78.6489 H         1 UNK         0.0822 
    119 H119      -82.0002   23.8370  -79.7625 H         1 UNK         0.0807 
    120 H120      -82.4452   22.4228  -78.8055 H         1 UNK         0.0807 
    121 H121      -81.1437   22.3213  -79.9830 H         1 UNK         0.0807 
    122 H122      -82.2293   24.3946  -77.2785 H         1 UNK         0.2946 
    123 H123      -82.1997   26.2493  -75.7452 H         1 UNK         0.1144 
    124 H124      -82.7616   25.2401  -73.5068 H         1 UNK         0.0793 
    125 H125      -81.4243   24.1045  -73.6728 H         1 UNK         0.0793 
    126 H126      -82.8011   24.0204  -74.7650 H         1 UNK         0.0793 
    127 H127      -80.4216   26.3280  -73.4590 H         1 UNK         0.2896 
@<TRIPOS>BOND
     1    1    2 1    
     2    1   67 1    
     3    1   68 1    
     4    1   69 1    
     5    2    3 2    
     6    2    4 am   BACKBONE|DICT|INTERRES
     7    4    5 1    
     8    4   70 1    
     9    5    6 1    
    10    5   65 1    
    11    5   71 1    
    12    6    7 1    
    13    6   72 1    
    14    6   73 1    
    15    7    8 1    
    16    8    9 1    
    17    8   74 1    
    18    8   75 1    
    19    9   10 ar   
    20    9   14 ar   
    21   10   11 ar   
    22   10   76 1    
    23   11   12 ar   
    24   11   48 1    
    25   12   13 ar   
    26   12   77 1    
    27   13   14 ar   
    28   13   15 1    
    29   14   78 1    
    30   15   16 1    
    31   15   79 1    
    32   15   80 1    
    33   16   17 1    
    34   17   18 1    
    35   17   81 1    
    36   17   82 1    
    37   18   19 1    
    38   18   22 1    
    39   18   83 1    
    40   19   20 am   BACKBONE|DICT|INTERRES
    41   19   21 2    
    42   20   84 1    
    43   20   85 1    
    44   22   23 am   BACKBONE|DICT|INTERRES
    45   22   86 1    
    46   23   24 2    
    47   23   25 1    
    48   25   26 1    
    49   25   27 1    
    50   25   87 1    
    51   26   88 1    
    52   26   89 1    
    53   26   90 1    
    54   27   28 am   BACKBONE|DICT|INTERRES
    55   27   91 1    
    56   28   29 2    
    57   28   30 1    
    58   30   31 1    
    59   30   32 1    
    60   30   92 1    
    61   31   93 1    
    62   31   94 1    
    63   31   95 1    
    64   32   33 am   BACKBONE|DICT|INTERRES
    65   32   96 1    
    66   33   34 2    
    67   33   35 1    
    68   35   36 1    
    69   35   37 1    
    70   35   97 1    
    71   36   98 1    
    72   36   99 1    
    73   36  100 1    
    74   37   38 am   BACKBONE|DICT|INTERRES
    75   37  101 1    
    76   38   39 2    
    77   38   40 1    
    78   40   41 1    
    79   40   42 1    
    80   40  102 1    
    81   41  103 1    
    82   41  104 1    
    83   41  105 1    
    84   42   43 am   BACKBONE|DICT|INTERRES
    85   42  106 1    
    86   43   44 2    
    87   43   45 1    
    88   45   46 1    
    89   45   49 1    
    90   45  107 1    
    91   46   47 1    
    92   46  108 1    
    93   46  109 1    
    94   47   48 1    
    95   48  110 1    
    96   48  111 1    
    97   49   50 am   BACKBONE|DICT|INTERRES
    98   49  112 1    
    99   50   51 2    
   100   50   52 1    
   101   52   53 1    
   102   52   54 1    
   103   52  113 1    
   104   53  114 1    
   105   53  115 1    
   106   53  116 1    
   107   54   55 am   BACKBONE|DICT|INTERRES
   108   54  117 1    
   109   55   56 2    
   110   55   57 1    
   111   57   58 1    
   112   57   59 1    
   113   57  118 1    
   114   58  119 1    
   115   58  120 1    
   116   58  121 1    
   117   59   60 am   BACKBONE|DICT|INTERRES
   118   59  122 1    
   119   60   61 2    
   120   60   62 1    
   121   62   63 1    
   122   62   64 1    
   123   62  123 1    
   124   63  124 1    
   125   63  125 1    
   126   63  126 1    
   127   64   65 am   BACKBONE|DICT|INTERRES
   128   64  127 1    
   129   65   66 2    
@<TRIPOS>SUBSTRUCTURE
     1 UNK         1 GROUP             0       ****    0 ROOT    
