@<TRIPOS>MOLECULE
3R135
127   129    1
SMALL
USER_CHARGES


@<TRIPOS>ATOM
      1 CA        -82.4344   28.4654  -69.5984 C.3       0 UNK        -0.1998 
      2 C         -82.9808   27.6521  -70.7625 C.2       0 UNK         0.4909 
      3 O         -83.8350   26.7878  -70.5605 O.2       0 UNK        -0.5240 
      4 N         -82.4993   27.9301  -71.9800 N.am      1 UNK        -0.4739 
      5 CA        -82.8263   27.1890  -73.2023 C.3       1 UNK         0.0864 
      6 C6        -82.5645   28.0555  -74.4701 C.3       11 UNK        -0.0881 
      7 S7        -80.8131   28.2387  -74.9772 S.3       11 UNK        -0.2682 
      8 C8        -80.2825   29.6936  -74.0186 C.3       11 UNK         0.0289 
      9 C9        -78.9713   29.4430  -73.2831 C.ar      11 UNK        -0.0687 
     10 C10       -78.8594   28.3919  -72.3673 C.ar      11 UNK        -0.0823 
     11 C11       -77.6729   28.1817  -71.6598 C.ar      11 UNK        -0.0830 
     12 C12       -76.5819   29.0280  -71.8849 C.ar      11 UNK        -0.1021 
     13 C13       -76.6760   30.0841  -72.7992 C.ar      11 UNK        -0.0753 
     14 C14       -77.8770   30.2878  -73.4884 C.ar      11 UNK        -0.0933 
     15 C15       -75.4985   31.0325  -73.0002 C.3       11 UNK         0.0166 
     16 S16       -75.0654   31.2552  -74.7570 S.3       11 UNK        -0.2615 
     17 C17       -73.5392   32.2484  -74.6336 C.3       11 UNK        -0.0865 
     18 CA        -72.2701   31.4385  -75.0115 C.3       10 UNK         0.0862 
     19 C         -71.0195   32.3642  -75.0763 C.2       10 UNK         0.5551 
     20 N         -69.9965   32.1638  -74.2541 N.am      10 UNK        -0.7319 
     21 O         -70.9776   33.2815  -75.8926 O.2       10 UNK        -0.5018 
     22 N         -72.1163   30.2482  -74.1583 N.am      10 UNK        -0.4509 
     23 C         -71.4002   29.1607  -74.4675 C.2       10 UNK         0.4899 
     24 O         -70.7404   29.0516  -75.5022 O.2       10 UNK        -0.4839 
     25 CA        -71.3972   28.0127  -73.4398 C.3       9 UNK         0.0222 
     26 CB        -72.3707   28.2194  -72.2582 C.3       9 UNK        -0.1966 
     27 N         -71.7284   26.7539  -74.1042 N.am      9 UNK        -0.4218 
     28 C         -70.8445   25.8606  -74.5659 C.2       9 UNK         0.5020 
     29 O         -69.6224   25.9732  -74.4521 O.2       9 UNK        -0.5274 
     30 CA        -71.4202   24.6107  -75.2525 C.3       8 UNK         0.0270 
     31 CB        -71.9109   23.5972  -74.2052 C.3       8 UNK        -0.1976 
     32 N         -72.5035   24.9169  -76.1906 N.am      8 UNK        -0.4313 
     33 C         -72.3294   25.5123  -77.3798 C.2       8 UNK         0.5041 
     34 O         -71.2293   25.8388  -77.8276 O.2       8 UNK        -0.5577 
     35 CA        -73.5876   25.7749  -78.2267 C.3       7 UNK         0.0284 
     36 CB        -74.0051   24.5072  -78.9893 C.3       7 UNK        -0.1958 
     37 N         -74.7148   26.2631  -77.4320 N.am      7 UNK        -0.4454 
     38 C         -74.7705   27.4702  -76.8520 C.2       7 UNK         0.5089 
     39 O         -73.9159   28.3423  -77.0025 O.2       7 UNK        -0.5125 
     40 CA        -75.9719   27.7401  -75.9280 C.3       6 UNK         0.0408 
     41 CB        -77.1596   28.3086  -76.7182 C.3       6 UNK        -0.1791 
     42 N         -76.3952   26.5586  -75.1733 N.am      6 UNK        -0.4762 
     43 C         -75.6322   25.9393  -74.2609 C.2       6 UNK         0.5007 
     44 O         -74.4899   26.2922  -73.9707 O.2       6 UNK        -0.5032 
     45 CA        -76.2130   24.6679  -73.6175 C.3       5 UNK         0.0783 
     46 C46       -77.2345   24.9921  -72.5005 C.3       11 UNK        -0.0857 
     47 S47       -76.4398   25.7410  -71.0375 S.3       11 UNK        -0.2512 
     48 C48       -77.6004   27.0783  -70.6097 C.3       11 UNK         0.0225 
     49 N         -76.7789   23.7838  -74.6382 N.am      5 UNK        -0.4615 
     50 C         -76.0565   23.1375  -75.5655 C.2       4 UNK         0.5053 
     51 O         -74.8278   23.1723  -75.6141 O.2       4 UNK        -0.5105 
     52 CA        -76.8249   22.3590  -76.6508 C.3       4 UNK         0.0263 
     53 CB        -77.0927   20.9180  -76.1896 C.3       4 UNK        -0.1981 
     54 N         -78.0897   22.9928  -77.0307 N.am      4 UNK        -0.4224 
     55 C         -78.1996   24.2258  -77.5449 C.2       3 UNK         0.4895 
     56 O         -77.2320   24.9117  -77.8732 O.2       3 UNK        -0.5091 
     57 CA        -79.6130   24.8255  -77.6726 C.3       3 UNK         0.0250 
     58 CB        -80.1049   24.7191  -79.1247 C.3       3 UNK        -0.1996 
     59 N         -80.6402   24.2768  -76.7726 N.am      3 UNK        -0.4254 
     60 C         -80.5554   24.1760  -75.4373 C.2       2 UNK         0.5004 
     61 O         -79.5297   24.4095  -74.7981 O.2       2 UNK        -0.5226 
     62 CA        -81.8441   23.7720  -74.7002 C.3       2 UNK         0.0269 
     63 CB        -81.5856   22.7317  -73.5890 C.3       2 UNK        -0.1926 
     64 N         -82.5273   24.9733  -74.1999 N.am      2 UNK        -0.4687 
     65 C         -82.1017   25.8227  -73.2499 C.2       1 UNK         0.5165 
     66 O         -81.1687   25.5948  -72.4748 O.2       1 UNK        -0.5079 
     67 H67       -81.9722   27.8050  -68.8652 H         1 UNK         0.0900 
     68 H68       -83.2416   29.0086  -69.1078 H         1 UNK         0.0900 
     69 H69       -81.6854   29.1885  -69.9214 H         1 UNK         0.0900 
     70 H70       -81.7830   28.6324  -72.0789 H         1 UNK         0.2959 
     71 H71       -83.8972   26.9741  -73.1702 H         1 UNK         0.1079 
     72 H72       -83.0899   27.6143  -75.3186 H         1 UNK         0.0837 
     73 H73       -83.0121   29.0438  -74.3516 H         1 UNK         0.0837 
     74 H74       -80.1880   30.5371  -74.7041 H         1 UNK         0.0685 
     75 H75       -81.0431   29.9786  -73.2922 H         1 UNK         0.0685 
     76 H76       -79.7023   27.7373  -72.1994 H         1 UNK         0.1434 
     77 H77       -75.6661   28.8701  -71.3320 H         1 UNK         0.1329 
     78 H78       -77.9578   31.1121  -74.1836 H         1 UNK         0.1335 
     79 H79       -75.7490   32.0022  -72.5681 H         1 UNK         0.0680 
     80 H80       -74.6225   30.6678  -72.4629 H         1 UNK         0.0680 
     81 H81       -73.4449   32.6684  -73.6305 H         1 UNK         0.1032 
     82 H82       -73.6569   33.1023  -75.3037 H         1 UNK         0.1032 
     83 H83       -72.4153   31.0769  -76.0318 H         1 UNK         0.0461 
     84 H84       -69.1916   32.7680  -74.3084 H         1 UNK         0.3453 
     85 H85       -70.0192   31.4094  -73.5874 H         1 UNK         0.3453 
     86 H86       -72.6210   30.2605  -73.2864 H         1 UNK         0.2984 
     87 H87       -70.3879   27.9577  -73.0276 H         1 UNK         0.0554 
     88 H88       -72.3481   27.3648  -71.5815 H         1 UNK         0.0847 
     89 H89       -73.4022   28.3381  -72.5934 H         1 UNK         0.0847 
     90 H90       -72.1029   29.0952  -71.6660 H         1 UNK         0.0847 
     91 H91       -72.7233   26.5670  -74.2278 H         1 UNK         0.3141 
     92 H92       -70.6108   24.1419  -75.8165 H         1 UNK         0.0743 
     93 H93       -72.7531   23.9850  -73.6308 H         1 UNK         0.0784 
     94 H94       -72.2278   22.6657  -74.6746 H         1 UNK         0.0784 
     95 H95       -71.1180   23.3502  -73.4981 H         1 UNK         0.0784 
     96 H96       -73.4355   24.6135  -75.9251 H         1 UNK         0.3213 
     97 H97       -73.3388   26.5446  -78.9606 H         1 UNK         0.0855 
     98 H98       -73.1948   24.1527  -79.6278 H         1 UNK         0.0814 
     99 H99       -74.8663   24.6952  -79.6309 H         1 UNK         0.0814 
    100 H100      -74.2647   23.6943  -78.3111 H         1 UNK         0.0814 
    101 H101      -75.5177   25.6470  -77.3365 H         1 UNK         0.3105 
    102 H102      -75.6616   28.4870  -75.1970 H         1 UNK         0.0547 
    103 H103      -76.8720   29.2197  -77.2442 H         1 UNK         0.0837 
    104 H104      -77.5291   27.6033  -77.4626 H         1 UNK         0.0837 
    105 H105      -77.9858   28.5671  -76.0569 H         1 UNK         0.0837 
    106 H106      -77.3130   26.1860  -75.3715 H         1 UNK         0.3020 
    107 H107      -75.3783   24.1305  -73.1608 H         1 UNK         0.1245 
    108 H108      -77.7274   24.0765  -72.1700 H         1 UNK         0.0781 
    109 H109      -78.0316   25.6365  -72.8758 H         1 UNK         0.0781 
    110 H110      -77.2904   27.5173  -69.6605 H         1 UNK         0.0836 
    111 H111      -78.5861   26.6439  -70.4332 H         1 UNK         0.0836 
    112 H112      -77.7952   23.7805  -74.7044 H         1 UNK         0.3022 
    113 H113      -76.1933   22.3224  -77.5405 H         1 UNK         0.0747 
    114 H114      -77.5604   20.3286  -76.9785 H         1 UNK         0.0793 
    115 H115      -76.1619   20.4162  -75.9210 H         1 UNK         0.0793 
    116 H116      -77.7436   20.8878  -75.3148 H         1 UNK         0.0793 
    117 H117      -78.9380   22.5042  -76.7856 H         1 UNK         0.3047 
    118 H118      -79.5204   25.8850  -77.4248 H         1 UNK         0.0822 
    119 H119      -81.0386   25.2628  -79.2701 H         1 UNK         0.0807 
    120 H120      -80.2684   23.6819  -79.4200 H         1 UNK         0.0807 
    121 H121      -79.3763   25.1440  -79.8171 H         1 UNK         0.0807 
    122 H122      -81.5233   24.0543  -77.2093 H         1 UNK         0.2946 
    123 H123      -82.5190   23.3077  -75.4214 H         1 UNK         0.1144 
    124 H124      -81.2008   21.8039  -74.0135 H         1 UNK         0.0793 
    125 H125      -82.5026   22.4883  -73.0526 H         1 UNK         0.0793 
    126 H126      -80.8517   23.0743  -72.8591 H         1 UNK         0.0793 
    127 H127      -83.3122   25.2704  -74.7633 H         1 UNK         0.2896 
@<TRIPOS>BOND
     1    1    2 1    
     2    1   67 1    
     3    1   68 1    
     4    1   69 1    
     5    2    3 2    
     6    2    4 am   BACKBONE|DICT|INTERRES
     7    4    5 1    
     8    4   70 1    
     9    5    6 1    
    10    5   65 1    
    11    5   71 1    
    12    6    7 1    
    13    6   72 1    
    14    6   73 1    
    15    7    8 1    
    16    8    9 1    
    17    8   74 1    
    18    8   75 1    
    19    9   10 ar   
    20    9   14 ar   
    21   10   11 ar   
    22   10   76 1    
    23   11   12 ar   
    24   11   48 1    
    25   12   13 ar   
    26   12   77 1    
    27   13   14 ar   
    28   13   15 1    
    29   14   78 1    
    30   15   16 1    
    31   15   79 1    
    32   15   80 1    
    33   16   17 1    
    34   17   18 1    
    35   17   81 1    
    36   17   82 1    
    37   18   19 1    
    38   18   22 1    
    39   18   83 1    
    40   19   20 am   BACKBONE|DICT|INTERRES
    41   19   21 2    
    42   20   84 1    
    43   20   85 1    
    44   22   23 am   BACKBONE|DICT|INTERRES
    45   22   86 1    
    46   23   24 2    
    47   23   25 1    
    48   25   26 1    
    49   25   27 1    
    50   25   87 1    
    51   26   88 1    
    52   26   89 1    
    53   26   90 1    
    54   27   28 am   BACKBONE|DICT|INTERRES
    55   27   91 1    
    56   28   29 2    
    57   28   30 1    
    58   30   31 1    
    59   30   32 1    
    60   30   92 1    
    61   31   93 1    
    62   31   94 1    
    63   31   95 1    
    64   32   33 am   BACKBONE|DICT|INTERRES
    65   32   96 1    
    66   33   34 2    
    67   33   35 1    
    68   35   36 1    
    69   35   37 1    
    70   35   97 1    
    71   36   98 1    
    72   36   99 1    
    73   36  100 1    
    74   37   38 am   BACKBONE|DICT|INTERRES
    75   37  101 1    
    76   38   39 2    
    77   38   40 1    
    78   40   41 1    
    79   40   42 1    
    80   40  102 1    
    81   41  103 1    
    82   41  104 1    
    83   41  105 1    
    84   42   43 am   BACKBONE|DICT|INTERRES
    85   42  106 1    
    86   43   44 2    
    87   43   45 1    
    88   45   46 1    
    89   45   49 1    
    90   45  107 1    
    91   46   47 1    
    92   46  108 1    
    93   46  109 1    
    94   47   48 1    
    95   48  110 1    
    96   48  111 1    
    97   49   50 am   BACKBONE|DICT|INTERRES
    98   49  112 1    
    99   50   51 2    
   100   50   52 1    
   101   52   53 1    
   102   52   54 1    
   103   52  113 1    
   104   53  114 1    
   105   53  115 1    
   106   53  116 1    
   107   54   55 am   BACKBONE|DICT|INTERRES
   108   54  117 1    
   109   55   56 2    
   110   55   57 1    
   111   57   58 1    
   112   57   59 1    
   113   57  118 1    
   114   58  119 1    
   115   58  120 1    
   116   58  121 1    
   117   59   60 am   BACKBONE|DICT|INTERRES
   118   59  122 1    
   119   60   61 2    
   120   60   62 1    
   121   62   63 1    
   122   62   64 1    
   123   62  123 1    
   124   63  124 1    
   125   63  125 1    
   126   63  126 1    
   127   64   65 am   BACKBONE|DICT|INTERRES
   128   64  127 1    
   129   65   66 2    
@<TRIPOS>SUBSTRUCTURE
     1 UNK         1 GROUP             0       ****    0 ROOT    
