@<TRIPOS>MOLECULE
3R135
127   129    1
SMALL
USER_CHARGES


@<TRIPOS>ATOM
      1 CA        -78.2067   32.1060  -75.5977 C.3       0 UNK        -0.1998 
      2 C         -78.9446   31.2199  -74.6049 C.2       0 UNK         0.4909 
      3 O         -78.9997   31.5505  -73.4227 O.2       0 UNK        -0.5240 
      4 N         -79.5070   30.1085  -75.0889 N.am      1 UNK        -0.4739 
      5 CA        -80.1641   29.0206  -74.3612 C.3       1 UNK         0.0864 
      6 C6        -81.4273   29.4631  -73.5685 C.3       11 UNK        -0.0881 
      7 S7        -81.9521   28.2543  -72.2984 S.3       11 UNK        -0.2682 
      8 C8        -81.1602   28.8777  -70.7800 C.3       11 UNK         0.0289 
      9 C9        -79.7082   28.4334  -70.6665 C.ar      11 UNK        -0.0687 
     10 C10       -79.3984   27.1426  -70.2246 C.ar      11 UNK        -0.0823 
     11 C11       -78.0652   26.7282  -70.1083 C.ar      11 UNK        -0.0830 
     12 C12       -77.0423   27.6241  -70.4360 C.ar      11 UNK        -0.1021 
     13 C13       -77.3378   28.9240  -70.8549 C.ar      11 UNK        -0.0753 
     14 C14       -78.6725   29.3217  -70.9667 C.ar      11 UNK        -0.0933 
     15 C15       -76.2141   29.9074  -71.1463 C.3       11 UNK         0.0166 
     16 S16       -75.7307   29.8667  -72.8995 S.3       11 UNK        -0.2615 
     17 C17       -73.9088   29.7880  -72.7899 C.3       11 UNK        -0.0865 
     18 CA        -73.2153   30.4725  -73.9985 C.3       10 UNK         0.0862 
     19 C         -71.6823   30.6405  -73.7757 C.2       10 UNK         0.5551 
     20 N         -70.8211   30.3444  -74.7421 N.am      10 UNK        -0.7319 
     21 O         -71.2598   31.0683  -72.7040 O.2       10 UNK        -0.5018 
     22 N         -73.5518   29.8062  -75.2687 N.am      10 UNK        -0.4509 
     23 C         -73.8150   30.4463  -76.4144 C.2       10 UNK         0.4899 
     24 O         -73.8642   31.6740  -76.5134 O.2       10 UNK        -0.4839 
     25 CA        -74.0557   29.5690  -77.6625 C.3       9 UNK         0.0222 
     26 CB        -74.0860   30.3929  -78.9668 C.3       9 UNK        -0.1966 
     27 N         -73.1170   28.4480  -77.8074 N.am      9 UNK        -0.4218 
     28 C         -71.7763   28.4804  -77.7866 C.2       9 UNK         0.5020 
     29 O         -71.1202   29.4974  -77.5540 O.2       9 UNK        -0.5274 
     30 CA        -71.0502   27.1436  -78.0588 C.3       8 UNK         0.0270 
     31 CB        -69.5202   27.2608  -77.9207 C.3       8 UNK        -0.1976 
     32 N         -71.5209   26.0650  -77.1852 N.am      8 UNK        -0.4313 
     33 C         -72.6820   25.4109  -77.3118 C.2       8 UNK         0.5041 
     34 O         -73.4750   25.6165  -78.2332 O.2       8 UNK        -0.5577 
     35 CA        -73.0705   24.4220  -76.1970 C.3       7 UNK         0.0284 
     36 CB        -71.9231   24.0702  -75.2224 C.3       7 UNK        -0.1958 
     37 N         -74.2407   24.9125  -75.4618 N.am      7 UNK        -0.4454 
     38 C         -74.3544   26.0900  -74.8267 C.2       7 UNK         0.5089 
     39 O         -73.4486   26.9212  -74.7402 O.2       7 UNK        -0.5125 
     40 CA        -75.7163   26.4303  -74.2095 C.3       6 UNK         0.0408 
     41 CB        -76.5262   27.3084  -75.1762 C.3       6 UNK        -0.1791 
     42 N         -76.5253   25.2713  -73.8463 N.am      6 UNK        -0.4762 
     43 C         -76.3098   24.4509  -72.8097 C.2       6 UNK         0.5007 
     44 O         -75.3126   24.4940  -72.0891 O.2       6 UNK        -0.5032 
     45 CA        -77.4186   23.4162  -72.5402 C.3       5 UNK         0.0783 
     46 C46       -78.6837   24.0918  -71.9400 C.3       11 UNK        -0.0857 
     47 S47       -78.7779   23.9812  -70.1248 S.3       11 UNK        -0.2512 
     48 C48       -77.6949   25.3447  -69.5761 C.3       11 UNK         0.0225 
     49 N         -77.7447   22.7194  -73.7831 N.am      5 UNK        -0.4615 
     50 C         -77.2000   21.5702  -74.1966 C.2       4 UNK         0.5053 
     51 O         -76.3815   20.9256  -73.5408 O.2       4 UNK        -0.5105 
     52 CA        -77.6489   21.0374  -75.5719 C.3       4 UNK         0.0263 
     53 CB        -78.7164   19.9447  -75.3989 C.3       4 UNK        -0.1981 
     54 N         -78.1681   22.0760  -76.4687 N.am      4 UNK        -0.4224 
     55 C         -77.4239   23.0494  -77.0114 C.2       3 UNK         0.4895 
     56 O         -76.2114   23.1627  -76.8332 O.2       3 UNK        -0.5091 
     57 CA        -78.1635   24.1044  -77.8547 C.3       3 UNK         0.0250 
     58 CB        -78.3082   23.6238  -79.3075 C.3       3 UNK        -0.1996 
     59 N         -79.4794   24.5167  -77.3399 N.am      3 UNK        -0.4254 
     60 C         -79.7128   24.9770  -76.1029 C.2       2 UNK         0.5004 
     61 O         -78.8830   24.9479  -75.1947 O.2       2 UNK        -0.5226 
     62 CA        -81.0996   25.5617  -75.8015 C.3       2 UNK         0.0269 
     63 CB        -81.9627   24.5334  -75.0536 C.3       2 UNK        -0.1926 
     64 N         -80.9583   26.7640  -74.9741 N.am      2 UNK        -0.4687 
     65 C         -80.4497   27.9224  -75.4116 C.2       1 UNK         0.5165 
     66 O         -80.1906   28.1322  -76.6026 O.2       1 UNK        -0.5079 
     67 H67       -78.6146   33.1162  -75.5764 H         1 UNK         0.0900 
     68 H68       -77.1498   32.1580  -75.3351 H         1 UNK         0.0900 
     69 H69       -78.2840   31.7297  -76.6177 H         1 UNK         0.0900 
     70 H70       -79.4374   29.8963  -76.0790 H         1 UNK         0.2959 
     71 H71       -79.4274   28.6199  -73.6623 H         1 UNK         0.1079 
     72 H72       -81.2581   30.4150  -73.0663 H         1 UNK         0.0837 
     73 H73       -82.2623   29.6433  -74.2480 H         1 UNK         0.0837 
     74 H74       -81.7160   28.5005  -69.9203 H         1 UNK         0.0685 
     75 H75       -81.2413   29.9649  -70.7352 H         1 UNK         0.0685 
     76 H76       -80.1995   26.4636  -69.9665 H         1 UNK         0.1434 
     77 H77       -76.0088   27.3182  -70.3438 H         1 UNK         0.1329 
     78 H78       -78.9049   30.3292  -71.2788 H         1 UNK         0.1335 
     79 H79       -76.5238   30.9216  -70.8894 H         1 UNK         0.0680 
     80 H80       -75.3605   29.6789  -70.5068 H         1 UNK         0.0680 
     81 H81       -73.6014   28.7444  -72.7072 H         1 UNK         0.1032 
     82 H82       -73.6009   30.2713  -71.8612 H         1 UNK         0.1032 
     83 H83       -73.5975   31.4944  -74.0291 H         1 UNK         0.0461 
     84 H84       -69.8362   30.4696  -74.5730 H         1 UNK         0.3453 
     85 H85       -71.1367   30.0391  -75.6568 H         1 UNK         0.3453 
     86 H86       -73.4934   28.7916  -75.2572 H         1 UNK         0.2984 
     87 H87       -75.0428   29.1236  -77.5339 H         1 UNK         0.0554 
     88 H88       -74.8557   31.1649  -78.9278 H         1 UNK         0.0847 
     89 H89       -74.3058   29.7641  -79.8295 H         1 UNK         0.0847 
     90 H90       -73.1328   30.8908  -79.1490 H         1 UNK         0.0847 
     91 H91       -73.5328   27.5356  -77.9822 H         1 UNK         0.3141 
     92 H92       -71.2678   26.8708  -79.0936 H         1 UNK         0.0743 
     93 H93       -69.1229   28.0172  -78.5990 H         1 UNK         0.0784 
     94 H94       -69.2265   27.5433  -76.9088 H         1 UNK         0.0784 
     95 H95       -69.0258   26.3202  -78.1645 H         1 UNK         0.0784 
     96 H96       -70.9698   25.8850  -76.3584 H         1 UNK         0.3213 
     97 H97       -73.3782   23.5022  -76.6970 H         1 UNK         0.0855 
     98 H98       -71.5862   24.9310  -74.6438 H         1 UNK         0.0814 
     99 H99       -71.0617   23.6660  -75.7558 H         1 UNK         0.0814 
    100 H100      -72.2417   23.3077  -74.5115 H         1 UNK         0.0814 
    101 H101      -75.0747   24.3425  -75.5602 H         1 UNK         0.3105 
    102 H102      -75.5284   26.9971  -73.2966 H         1 UNK         0.0547 
    103 H103      -77.4560   27.6387  -74.7165 H         1 UNK         0.0837 
    104 H104      -76.7745   26.7783  -76.0964 H         1 UNK         0.0837 
    105 H105      -75.9722   28.2048  -75.4523 H         1 UNK         0.0837 
    106 H106      -77.3899   25.1505  -74.3757 H         1 UNK         0.3020 
    107 H107      -77.0272   22.6897  -71.8239 H         1 UNK         0.1245 
    108 H108      -79.5802   23.5859  -72.3025 H         1 UNK         0.0781 
    109 H109      -78.8066   25.1273  -72.2645 H         1 UNK         0.0781 
    110 H110      -76.6672   25.0954  -69.8420 H         1 UNK         0.0836 
    111 H111      -77.7206   25.3826  -68.4864 H         1 UNK         0.0836 
    112 H112      -78.3564   23.2241  -74.4152 H         1 UNK         0.3022 
    113 H113      -76.7739   20.5889  -76.0474 H         1 UNK         0.0747 
    114 H114      -78.9870   19.4981  -76.3559 H         1 UNK         0.0793 
    115 H115      -78.3507   19.1393  -74.7601 H         1 UNK         0.0793 
    116 H116      -79.6253   20.3367  -74.9403 H         1 UNK         0.0793 
    117 H117      -79.1595   22.0652  -76.6606 H         1 UNK         0.3047 
    118 H118      -77.5349   24.9974  -77.8592 H         1 UNK         0.0822 
    119 H119      -78.7042   24.4110  -79.9493 H         1 UNK         0.0807 
    120 H120      -78.9711   22.7611  -79.3845 H         1 UNK         0.0807 
    121 H121      -77.3415   23.3303  -79.7200 H         1 UNK         0.0807 
    122 H122      -80.2279   24.5561  -78.0171 H         1 UNK         0.2946 
    123 H123      -81.5922   25.8329  -76.7380 H         1 UNK         0.1144 
    124 H124      -81.5056   24.2316  -74.1100 H         1 UNK         0.0793 
    125 H125      -82.1039   23.6318  -75.6513 H         1 UNK         0.0793 
    126 H126      -82.9526   24.9332  -74.8328 H         1 UNK         0.0793 
    127 H127      -81.1500   26.6664  -73.9860 H         1 UNK         0.2896 
@<TRIPOS>BOND
     1    1    2 1    
     2    1   67 1    
     3    1   68 1    
     4    1   69 1    
     5    2    3 2    
     6    2    4 am   BACKBONE|DICT|INTERRES
     7    4    5 1    
     8    4   70 1    
     9    5    6 1    
    10    5   65 1    
    11    5   71 1    
    12    6    7 1    
    13    6   72 1    
    14    6   73 1    
    15    7    8 1    
    16    8    9 1    
    17    8   74 1    
    18    8   75 1    
    19    9   10 ar   
    20    9   14 ar   
    21   10   11 ar   
    22   10   76 1    
    23   11   12 ar   
    24   11   48 1    
    25   12   13 ar   
    26   12   77 1    
    27   13   14 ar   
    28   13   15 1    
    29   14   78 1    
    30   15   16 1    
    31   15   79 1    
    32   15   80 1    
    33   16   17 1    
    34   17   18 1    
    35   17   81 1    
    36   17   82 1    
    37   18   19 1    
    38   18   22 1    
    39   18   83 1    
    40   19   20 am   BACKBONE|DICT|INTERRES
    41   19   21 2    
    42   20   84 1    
    43   20   85 1    
    44   22   23 am   BACKBONE|DICT|INTERRES
    45   22   86 1    
    46   23   24 2    
    47   23   25 1    
    48   25   26 1    
    49   25   27 1    
    50   25   87 1    
    51   26   88 1    
    52   26   89 1    
    53   26   90 1    
    54   27   28 am   BACKBONE|DICT|INTERRES
    55   27   91 1    
    56   28   29 2    
    57   28   30 1    
    58   30   31 1    
    59   30   32 1    
    60   30   92 1    
    61   31   93 1    
    62   31   94 1    
    63   31   95 1    
    64   32   33 am   BACKBONE|DICT|INTERRES
    65   32   96 1    
    66   33   34 2    
    67   33   35 1    
    68   35   36 1    
    69   35   37 1    
    70   35   97 1    
    71   36   98 1    
    72   36   99 1    
    73   36  100 1    
    74   37   38 am   BACKBONE|DICT|INTERRES
    75   37  101 1    
    76   38   39 2    
    77   38   40 1    
    78   40   41 1    
    79   40   42 1    
    80   40  102 1    
    81   41  103 1    
    82   41  104 1    
    83   41  105 1    
    84   42   43 am   BACKBONE|DICT|INTERRES
    85   42  106 1    
    86   43   44 2    
    87   43   45 1    
    88   45   46 1    
    89   45   49 1    
    90   45  107 1    
    91   46   47 1    
    92   46  108 1    
    93   46  109 1    
    94   47   48 1    
    95   48  110 1    
    96   48  111 1    
    97   49   50 am   BACKBONE|DICT|INTERRES
    98   49  112 1    
    99   50   51 2    
   100   50   52 1    
   101   52   53 1    
   102   52   54 1    
   103   52  113 1    
   104   53  114 1    
   105   53  115 1    
   106   53  116 1    
   107   54   55 am   BACKBONE|DICT|INTERRES
   108   54  117 1    
   109   55   56 2    
   110   55   57 1    
   111   57   58 1    
   112   57   59 1    
   113   57  118 1    
   114   58  119 1    
   115   58  120 1    
   116   58  121 1    
   117   59   60 am   BACKBONE|DICT|INTERRES
   118   59  122 1    
   119   60   61 2    
   120   60   62 1    
   121   62   63 1    
   122   62   64 1    
   123   62  123 1    
   124   63  124 1    
   125   63  125 1    
   126   63  126 1    
   127   64   65 am   BACKBONE|DICT|INTERRES
   128   64  127 1    
   129   65   66 2    
@<TRIPOS>SUBSTRUCTURE
     1 UNK         1 GROUP             0       ****    0 ROOT    
