@<TRIPOS>MOLECULE
3R135
127   129    1
SMALL
USER_CHARGES


@<TRIPOS>ATOM
      1 CA        -82.8563   28.7276  -72.5722 C.3       0 UNK        -0.1998 
      2 C         -81.6495   28.4747  -73.4617 C.2       0 UNK         0.4909 
      3 O         -81.1782   27.3416  -73.5414 O.2       0 UNK        -0.5240 
      4 N         -81.1580   29.5181  -74.1466 N.am      1 UNK        -0.4739 
      5 CA        -79.9560   29.5212  -75.0028 C.3       1 UNK         0.0864 
      6 C6        -78.6443   29.2919  -74.2034 C.3       11 UNK        -0.0881 
      7 S7        -78.3490   30.5596  -72.9262 S.3       11 UNK        -0.2682 
      8 C8        -78.6536   29.6316  -71.3857 C.3       11 UNK         0.0289 
      9 C9        -77.6905   28.4673  -71.1731 C.ar      11 UNK        -0.0687 
     10 C10       -78.1875   27.1900  -70.8970 C.ar      11 UNK        -0.0823 
     11 C11       -77.3167   26.1280  -70.6339 C.ar      11 UNK        -0.0830 
     12 C12       -75.9358   26.3384  -70.7026 C.ar      11 UNK        -0.1021 
     13 C13       -75.4218   27.6110  -70.9803 C.ar      11 UNK        -0.0753 
     14 C14       -76.3077   28.6722  -71.1951 C.ar      11 UNK        -0.0933 
     15 C15       -73.9142   27.8451  -70.9717 C.3       11 UNK         0.0166 
     16 S16       -73.2421   28.3054  -72.6043 S.3       11 UNK        -0.2615 
     17 C17       -73.4406   30.1248  -72.6166 C.3       11 UNK        -0.0865 
     18 CA        -74.3697   30.6356  -73.7515 C.3       10 UNK         0.0862 
     19 C         -74.5810   32.1742  -73.6313 C.2       10 UNK         0.5551 
     20 N         -74.1444   32.9856  -74.5868 N.am      10 UNK        -0.7319 
     21 O         -75.1423   32.6394  -72.6430 O.2       10 UNK        -0.5018 
     22 N         -73.8894   30.1639  -75.0567 N.am      10 UNK        -0.4509 
     23 C         -74.5443   30.1896  -76.2221 C.2       10 UNK         0.4899 
     24 O         -75.6686   30.6688  -76.3636 O.2       10 UNK        -0.4839 
     25 CA        -73.8518   29.5288  -77.4329 C.3       9 UNK         0.0222 
     26 CB        -73.5864   30.5445  -78.5631 C.3       9 UNK        -0.1966 
     27 N         -72.6464   28.7497  -77.0945 N.am      9 UNK        -0.4218 
     28 C         -71.4455   29.1972  -76.6879 C.2       9 UNK         0.5020 
     29 O         -71.1593   30.3921  -76.6125 O.2       9 UNK        -0.5274 
     30 CA        -70.4162   28.1518  -76.2131 C.3       8 UNK         0.0270 
     31 CB        -69.5975   28.6658  -75.0131 C.3       8 UNK        -0.1976 
     32 N         -71.0613   26.8947  -75.8266 N.am      8 UNK        -0.4313 
     33 C         -71.0230   25.7553  -76.5273 C.2       8 UNK         0.5041 
     34 O         -70.3848   25.6083  -77.5702 O.2       8 UNK        -0.5577 
     35 CA        -71.8619   24.5836  -75.9857 C.3       7 UNK         0.0284 
     36 CB        -71.0032   23.6747  -75.0920 C.3       7 UNK        -0.1958 
     37 N         -73.0636   24.9878  -75.2459 N.am      7 UNK        -0.4454 
     38 C         -74.0864   25.6986  -75.7372 C.2       7 UNK         0.5089 
     39 O         -74.0920   26.1736  -76.8741 O.2       7 UNK        -0.5125 
     40 CA        -75.2934   25.9078  -74.8006 C.3       6 UNK         0.0408 
     41 CB        -76.3928   26.7607  -75.4489 C.3       6 UNK        -0.1791 
     42 N         -75.8860   24.6449  -74.3588 N.am      6 UNK        -0.4762 
     43 C         -75.3686   23.8199  -73.4359 C.2       6 UNK         0.5007 
     44 O         -74.2970   24.0337  -72.8652 O.2       6 UNK        -0.5032 
     45 CA        -76.1505   22.5344  -73.0912 C.3       5 UNK         0.0783 
     46 C46       -76.7782   22.6171  -71.6778 C.3       11 UNK        -0.0857 
     47 S47       -78.2608   23.6849  -71.5886 S.3       11 UNK        -0.2512 
     48 C48       -77.8774   24.7829  -70.1913 C.3       11 UNK         0.0225 
     49 N         -77.1461   22.1669  -74.1021 N.am      5 UNK        -0.4615 
     50 C         -76.8793   21.7242  -75.3363 C.2       4 UNK         0.5053 
     51 O         -75.7421   21.4805  -75.7395 O.2       4 UNK        -0.5105 
     52 CA        -78.0752   21.5285  -76.2895 C.3       4 UNK         0.0263 
     53 CB        -78.3923   20.0322  -76.4475 C.3       4 UNK        -0.1981 
     54 N         -79.3037   22.2389  -75.9040 N.am      4 UNK        -0.4224 
     55 C         -79.4373   23.5702  -75.8155 C.2       3 UNK         0.4895 
     56 O         -78.5051   24.3609  -75.9679 O.2       3 UNK        -0.5091 
     57 CA        -80.8382   24.0867  -75.4420 C.3       3 UNK         0.0250 
     58 CB        -81.0187   24.0977  -73.9169 C.3       3 UNK        -0.1996 
     59 N         -81.0994   25.4320  -75.9611 N.am      3 UNK        -0.4254 
     60 C         -81.2769   25.7220  -77.2595 C.2       2 UNK         0.5004 
     61 O         -81.2630   24.8712  -78.1510 O.2       2 UNK        -0.5226 
     62 CA        -81.5573   27.1882  -77.6468 C.3       2 UNK         0.0269 
     63 CB        -83.0216   27.3571  -78.0871 C.3       2 UNK        -0.1926 
     64 N         -81.2781   28.1459  -76.5747 N.am      2 UNK        -0.4687 
     65 C         -80.0570   28.5772  -76.2291 C.2       1 UNK         0.5165 
     66 O         -79.0413   28.2682  -76.8524 O.2       1 UNK        -0.5079 
     67 H67       -83.6929   28.1058  -72.8895 H         1 UNK         0.0900 
     68 H68       -83.1751   29.7693  -72.6024 H         1 UNK         0.0900 
     69 H69       -82.6171   28.4757  -71.5394 H         1 UNK         0.0900 
     70 H70       -81.6064   30.4187  -74.0476 H         1 UNK         0.2959 
     71 H71       -79.8997   30.5229  -75.4319 H         1 UNK         0.1079 
     72 H72       -78.6452   28.3007  -73.7494 H         1 UNK         0.0837 
     73 H73       -77.7790   29.3242  -74.8672 H         1 UNK         0.0837 
     74 H74       -79.6877   29.2860  -71.3830 H         1 UNK         0.0685 
     75 H75       -78.5594   30.3180  -70.5434 H         1 UNK         0.0685 
     76 H76       -79.2561   27.0274  -70.8518 H         1 UNK         0.1434 
     77 H77       -75.2607   25.5170  -70.5042 H         1 UNK         0.1329 
     78 H78       -75.9284   29.6667  -71.3739 H         1 UNK         0.1335 
     79 H79       -73.6639   28.6064  -70.2319 H         1 UNK         0.0680 
     80 H80       -73.3997   26.9388  -70.6485 H         1 UNK         0.0680 
     81 H81       -73.8012   30.4600  -71.6431 H         1 UNK         0.1032 
     82 H82       -72.4474   30.5656  -72.7221 H         1 UNK         0.1032 
     83 H83       -75.3537   30.1870  -73.6091 H         1 UNK         0.0461 
     84 H84       -73.6832   32.6094  -75.3995 H         1 UNK         0.3453 
     85 H85       -74.2855   33.9793  -74.4968 H         1 UNK         0.3453 
     86 H86       -72.9575   29.7799  -75.0574 H         1 UNK         0.2984 
     87 H87       -74.5651   28.7982  -77.8175 H         1 UNK         0.0554 
     88 H88       -73.1208   30.0673  -79.4253 H         1 UNK         0.0847 
     89 H89       -72.9402   31.3606  -78.2396 H         1 UNK         0.0847 
     90 H90       -74.5192   30.9932  -78.9067 H         1 UNK         0.0847 
     91 H91       -72.7989   27.7452  -77.0974 H         1 UNK         0.3141 
     92 H92       -69.7285   27.9876  -77.0451 H         1 UNK         0.0743 
     93 H93       -69.0368   29.5647  -75.2730 H         1 UNK         0.0784 
     94 H94       -70.2361   28.9123  -74.1636 H         1 UNK         0.0784 
     95 H95       -68.8723   27.9223  -74.6819 H         1 UNK         0.0784 
     96 H96       -71.6158   26.9103  -74.9813 H         1 UNK         0.3213 
     97 H97       -72.1943   24.0009  -76.8474 H         1 UNK         0.0855 
     98 H98       -70.1126   23.3337  -75.6222 H         1 UNK         0.0814 
     99 H99       -71.5545   22.7862  -74.7834 H         1 UNK         0.0814 
    100 H100      -70.6693   24.1925  -74.1919 H         1 UNK         0.0814 
    101 H101      -73.1763   24.6228  -74.3031 H         1 UNK         0.3105 
    102 H102      -74.9440   26.4401  -73.9163 H         1 UNK         0.0547 
    103 H103      -76.7239   26.3459  -76.4017 H         1 UNK         0.0837 
    104 H104      -77.2658   26.8283  -74.8027 H         1 UNK         0.0837 
    105 H105      -76.0425   27.7740  -75.6385 H         1 UNK         0.0837 
    106 H106      -76.7620   24.3889  -74.8037 H         1 UNK         0.3020 
    107 H107      -75.4048   21.7360  -73.0704 H         1 UNK         0.1245 
    108 H108      -76.0333   22.9356  -70.9462 H         1 UNK         0.0781 
    109 H109      -77.0810   21.6177  -71.3621 H         1 UNK         0.0781 
    110 H110      -77.1956   24.2939  -69.4943 H         1 UNK         0.0836 
    111 H111      -78.7975   24.9455  -69.6279 H         1 UNK         0.0836 
    112 H112      -78.1069   22.3507  -73.8524 H         1 UNK         0.3022 
    113 H113      -77.7685   21.9165  -77.2631 H         1 UNK         0.0747 
    114 H114      -79.1646   19.8659  -77.1988 H         1 UNK         0.0793 
    115 H115      -77.5094   19.4764  -76.7672 H         1 UNK         0.0793 
    116 H116      -78.7326   19.5907  -75.5099 H         1 UNK         0.0793 
    117 H117      -80.1163   21.6622  -75.7377 H         1 UNK         0.3047 
    118 H118      -81.5807   23.4119  -75.8736 H         1 UNK         0.0822 
    119 H119      -80.8608   23.1071  -73.4889 H         1 UNK         0.0807 
    120 H120      -82.0237   24.4150  -73.6381 H         1 UNK         0.0807 
    121 H121      -80.3130   24.7782  -73.4390 H         1 UNK         0.0807 
    122 H122      -81.0943   26.1861  -75.2821 H         1 UNK         0.2946 
    123 H123      -80.9146   27.4208  -78.4992 H         1 UNK         0.1144 
    124 H124      -83.2616   26.6866  -78.9136 H         1 UNK         0.0793 
    125 H125      -83.2186   28.3729  -78.4303 H         1 UNK         0.0793 
    126 H126      -83.7155   27.1347  -77.2755 H         1 UNK         0.0793 
    127 H127      -82.0607   28.4440  -76.0104 H         1 UNK         0.2896 
@<TRIPOS>BOND
     1    1    2 1    
     2    1   67 1    
     3    1   68 1    
     4    1   69 1    
     5    2    3 2    
     6    2    4 am   BACKBONE|DICT|INTERRES
     7    4    5 1    
     8    4   70 1    
     9    5    6 1    
    10    5   65 1    
    11    5   71 1    
    12    6    7 1    
    13    6   72 1    
    14    6   73 1    
    15    7    8 1    
    16    8    9 1    
    17    8   74 1    
    18    8   75 1    
    19    9   10 ar   
    20    9   14 ar   
    21   10   11 ar   
    22   10   76 1    
    23   11   12 ar   
    24   11   48 1    
    25   12   13 ar   
    26   12   77 1    
    27   13   14 ar   
    28   13   15 1    
    29   14   78 1    
    30   15   16 1    
    31   15   79 1    
    32   15   80 1    
    33   16   17 1    
    34   17   18 1    
    35   17   81 1    
    36   17   82 1    
    37   18   19 1    
    38   18   22 1    
    39   18   83 1    
    40   19   20 am   BACKBONE|DICT|INTERRES
    41   19   21 2    
    42   20   84 1    
    43   20   85 1    
    44   22   23 am   BACKBONE|DICT|INTERRES
    45   22   86 1    
    46   23   24 2    
    47   23   25 1    
    48   25   26 1    
    49   25   27 1    
    50   25   87 1    
    51   26   88 1    
    52   26   89 1    
    53   26   90 1    
    54   27   28 am   BACKBONE|DICT|INTERRES
    55   27   91 1    
    56   28   29 2    
    57   28   30 1    
    58   30   31 1    
    59   30   32 1    
    60   30   92 1    
    61   31   93 1    
    62   31   94 1    
    63   31   95 1    
    64   32   33 am   BACKBONE|DICT|INTERRES
    65   32   96 1    
    66   33   34 2    
    67   33   35 1    
    68   35   36 1    
    69   35   37 1    
    70   35   97 1    
    71   36   98 1    
    72   36   99 1    
    73   36  100 1    
    74   37   38 am   BACKBONE|DICT|INTERRES
    75   37  101 1    
    76   38   39 2    
    77   38   40 1    
    78   40   41 1    
    79   40   42 1    
    80   40  102 1    
    81   41  103 1    
    82   41  104 1    
    83   41  105 1    
    84   42   43 am   BACKBONE|DICT|INTERRES
    85   42  106 1    
    86   43   44 2    
    87   43   45 1    
    88   45   46 1    
    89   45   49 1    
    90   45  107 1    
    91   46   47 1    
    92   46  108 1    
    93   46  109 1    
    94   47   48 1    
    95   48  110 1    
    96   48  111 1    
    97   49   50 am   BACKBONE|DICT|INTERRES
    98   49  112 1    
    99   50   51 2    
   100   50   52 1    
   101   52   53 1    
   102   52   54 1    
   103   52  113 1    
   104   53  114 1    
   105   53  115 1    
   106   53  116 1    
   107   54   55 am   BACKBONE|DICT|INTERRES
   108   54  117 1    
   109   55   56 2    
   110   55   57 1    
   111   57   58 1    
   112   57   59 1    
   113   57  118 1    
   114   58  119 1    
   115   58  120 1    
   116   58  121 1    
   117   59   60 am   BACKBONE|DICT|INTERRES
   118   59  122 1    
   119   60   61 2    
   120   60   62 1    
   121   62   63 1    
   122   62   64 1    
   123   62  123 1    
   124   63  124 1    
   125   63  125 1    
   126   63  126 1    
   127   64   65 am   BACKBONE|DICT|INTERRES
   128   64  127 1    
   129   65   66 2    
@<TRIPOS>SUBSTRUCTURE
     1 UNK         1 GROUP             0       ****    0 ROOT    
