@<TRIPOS>MOLECULE
3R135
127   129    1
SMALL
USER_CHARGES


@<TRIPOS>ATOM
      1 CA        -82.9499   24.5051  -74.2311 C.3       0 UNK        -0.1998 
      2 C         -81.8563   25.5439  -74.0403 C.2       0 UNK         0.4909 
      3 O         -80.6824   25.2434  -74.2708 O.2       0 UNK        -0.5240 
      4 N         -82.2400   26.7643  -73.6409 N.am      1 UNK        -0.4739 
      5 CA        -81.3719   27.9235  -73.4060 C.3       1 UNK         0.0864 
      6 C6        -80.5084   27.7591  -72.1263 C.3       11 UNK        -0.0881 
      7 S7        -80.0419   29.3767  -71.4312 S.3       11 UNK        -0.2682 
      8 C8        -79.3924   28.8819  -69.8089 C.3       11 UNK         0.0289 
      9 C9        -77.9563   28.3999  -69.9180 C.ar      11 UNK        -0.0687 
     10 C10       -77.6676   27.0389  -70.0579 C.ar      11 UNK        -0.0823 
     11 C11       -76.3422   26.6025  -70.1450 C.ar      11 UNK        -0.0830 
     12 C12       -75.3047   27.5391  -70.0913 C.ar      11 UNK        -0.1021 
     13 C13       -75.5844   28.9024  -69.9585 C.ar      11 UNK        -0.0753 
     14 C14       -76.9118   29.3257  -69.8691 C.ar      11 UNK        -0.0933 
     15 C15       -74.4540   29.9172  -69.8927 C.3       11 UNK         0.0166 
     16 S16       -73.7578   30.2679  -71.5346 S.3       11 UNK        -0.2615 
     17 C17       -75.0996   31.2231  -72.3292 C.3       11 UNK        -0.0865 
     18 CA        -74.8218   31.5319  -73.8241 C.3       10 UNK         0.0862 
     19 C         -73.6572   32.5549  -73.9965 C.2       10 UNK         0.5551 
     20 N         -72.4932   32.1618  -74.5033 N.am      10 UNK        -0.7319 
     21 O         -73.8220   33.7279  -73.6712 O.2       10 UNK        -0.5018 
     22 N         -74.6771   30.2922  -74.5990 N.am      10 UNK        -0.4509 
     23 C         -74.6629   30.2100  -75.9348 C.2       10 UNK         0.4899 
     24 O         -74.9415   31.1534  -76.6761 O.2       10 UNK        -0.4839 
     25 CA        -74.2719   28.8487  -76.5472 C.3       9 UNK         0.0222 
     26 CB        -73.5102   29.0070  -77.8791 C.3       9 UNK        -0.1966 
     27 N         -73.5329   27.9623  -75.6366 N.am      9 UNK        -0.4218 
     28 C         -72.3566   28.1936  -75.0292 C.2       9 UNK         0.5020 
     29 O         -71.7283   29.2491  -75.1246 O.2       9 UNK        -0.5274 
     30 CA        -71.7941   27.0586  -74.1595 C.3       8 UNK         0.0270 
     31 CB        -72.4693   27.0402  -72.7790 C.3       8 UNK        -0.1976 
     32 N         -71.9863   25.7608  -74.8066 N.am      8 UNK        -0.4313 
     33 C         -71.0473   25.1159  -75.5123 C.2       8 UNK         0.5041 
     34 O         -69.8871   25.5106  -75.6371 O.2       8 UNK        -0.5577 
     35 CA        -71.4689   23.8055  -76.2033 C.3       7 UNK         0.0284 
     36 CB        -71.2043   22.6023  -75.2837 C.3       7 UNK        -0.1958 
     37 N         -72.8753   23.8052  -76.6105 N.am      7 UNK        -0.4454 
     38 C         -73.3904   24.5870  -77.5698 C.2       7 UNK         0.5089 
     39 O         -72.7118   25.3073  -78.3014 O.2       7 UNK        -0.5125 
     40 CA        -74.9208   24.5884  -77.7251 C.3       6 UNK         0.0408 
     41 CB        -75.3448   23.7652  -78.9506 C.3       6 UNK        -0.1791 
     42 N         -75.6503   24.1038  -76.5477 N.am      6 UNK        -0.4762 
     43 C         -75.6997   24.7047  -75.3506 C.2       6 UNK         0.5007 
     44 O         -75.0393   25.7105  -75.0849 O.2       6 UNK        -0.5032 
     45 CA        -76.6318   24.0744  -74.2856 C.3       5 UNK         0.0783 
     46 C46       -76.7639   24.9291  -72.9965 C.3       11 UNK        -0.0857 
     47 S47       -75.3276   24.6975  -71.8945 S.3       11 UNK        -0.2512 
     48 C48       -76.0262   25.1186  -70.2679 C.3       11 UNK         0.0225 
     49 N         -77.9453   23.7353  -74.8482 N.am      5 UNK        -0.4615 
     50 C         -78.2063   22.6469  -75.5874 C.2       4 UNK         0.5053 
     51 O         -77.3659   21.7875  -75.8501 O.2       4 UNK        -0.5105 
     52 CA        -79.6097   22.5318  -76.1890 C.3       4 UNK         0.0263 
     53 CB        -80.5988   21.9676  -75.1568 C.3       4 UNK        -0.1981 
     54 N         -80.0600   23.8392  -76.6694 N.am      4 UNK        -0.4224 
     55 C         -79.8672   24.2870  -77.9183 C.2       3 UNK         0.4895 
     56 O         -79.3677   23.6151  -78.8213 O.2       3 UNK        -0.5091 
     57 CA        -80.3060   25.7293  -78.2139 C.3       3 UNK         0.0250 
     58 CB        -81.8340   25.8145  -78.3631 C.3       3 UNK        -0.1996 
     59 N         -79.8654   26.6771  -77.1913 N.am      3 UNK        -0.4254 
     60 C         -78.6066   27.0916  -77.0002 C.2       2 UNK         0.5004 
     61 O         -77.6626   26.7236  -77.6966 O.2       2 UNK        -0.5226 
     62 CA        -78.3340   28.0802  -75.8454 C.3       2 UNK         0.0269 
     63 CB        -78.2085   29.5230  -76.3727 C.3       2 UNK        -0.1926 
     64 N         -79.2765   28.0056  -74.7161 N.am      2 UNK        -0.4687 
     65 C         -80.5905   28.2804  -74.6898 C.2       1 UNK         0.5165 
     66 O         -81.2166   28.7185  -75.6565 O.2       1 UNK        -0.5079 
     67 H67       -82.9312   24.1211  -75.2500 H         1 UNK         0.0900 
     68 H68       -82.7965   23.6711  -73.5476 H         1 UNK         0.0900 
     69 H69       -83.9412   24.9173  -74.0440 H         1 UNK         0.0900 
     70 H70       -83.2262   26.9424  -73.5086 H         1 UNK         0.2959 
     71 H71       -82.0572   28.7569  -73.2400 H         1 UNK         0.1079 
     72 H72       -81.0947   27.2428  -71.3645 H         1 UNK         0.0837 
     73 H73       -79.6286   27.1338  -72.2839 H         1 UNK         0.0837 
     74 H74       -80.0280   28.1145  -69.3650 H         1 UNK         0.0685 
     75 H75       -79.4404   29.7394  -69.1366 H         1 UNK         0.0685 
     76 H76       -78.4751   26.3209  -70.0924 H         1 UNK         0.1434 
     77 H77       -74.2780   27.2064  -70.1588 H         1 UNK         0.1329 
     78 H78       -77.1347   30.3785  -69.7634 H         1 UNK         0.1335 
     79 H79       -74.7908   30.8482  -69.4344 H         1 UNK         0.0680 
     80 H80       -73.6607   29.5313  -69.2513 H         1 UNK         0.0680 
     81 H81       -75.2630   32.1448  -71.7678 H         1 UNK         0.1032 
     82 H82       -76.0285   30.6573  -72.2483 H         1 UNK         0.1032 
     83 H83       -75.7105   32.0325  -74.2127 H         1 UNK         0.0461 
     84 H84       -71.7505   32.8327  -74.6135 H         1 UNK         0.3453 
     85 H85       -72.3377   31.1897  -74.7466 H         1 UNK         0.3453 
     86 H86       -74.4146   29.4767  -74.0656 H         1 UNK         0.2984 
     87 H87       -75.2087   28.3345  -76.7651 H         1 UNK         0.0554 
     88 H88       -74.1107   29.5421  -78.6155 H         1 UNK         0.0847 
     89 H89       -73.2623   28.0376  -78.3110 H         1 UNK         0.0847 
     90 H90       -72.5815   29.5636  -77.7491 H         1 UNK         0.0847 
     91 H91       -74.0103   27.0840  -75.4320 H         1 UNK         0.3141 
     92 H92       -70.7288   27.2455  -74.0076 H         1 UNK         0.0743 
     93 H93       -72.2048   27.9326  -72.2126 H         1 UNK         0.0784 
     94 H94       -73.5575   27.0060  -72.8529 H         1 UNK         0.0784 
     95 H95       -72.1482   26.1814  -72.1888 H         1 UNK         0.0784 
     96 H96       -72.9242   25.3803  -74.7862 H         1 UNK         0.3213 
     97 H97       -70.8566   23.6936  -77.1010 H         1 UNK         0.0855 
     98 H98       -71.8009   22.6489  -74.3718 H         1 UNK         0.0814 
     99 H99       -70.1558   22.5649  -74.9846 H         1 UNK         0.0814 
    100 H100      -71.4291   21.6612  -75.7856 H         1 UNK         0.0814 
    101 H101      -73.5100   23.2231  -76.0836 H         1 UNK         0.3105 
    102 H102      -75.2179   25.6251  -77.8930 H         1 UNK         0.0547 
    103 H103      -75.1023   22.7089  -78.8322 H         1 UNK         0.0837 
    104 H104      -74.8415   24.1178  -79.8520 H         1 UNK         0.0837 
    105 H105      -76.4174   23.8472  -79.1283 H         1 UNK         0.0837 
    106 H106      -76.2017   23.2608  -76.6670 H         1 UNK         0.3020 
    107 H107      -76.1585   23.1316  -74.0003 H         1 UNK         0.1245 
    108 H108      -77.6554   24.6290  -72.4434 H         1 UNK         0.0781 
    109 H109      -76.8921   25.9904  -73.2179 H         1 UNK         0.0781 
    110 H110      -75.3049   24.8451  -69.4967 H         1 UNK         0.0836 
    111 H111      -76.9121   24.5093  -70.0832 H         1 UNK         0.0836 
    112 H112      -78.6964   24.3925  -74.6770 H         1 UNK         0.3022 
    113 H113      -79.5641   21.8289  -77.0237 H         1 UNK         0.0747 
    114 H114      -80.6326   22.5700  -74.2491 H         1 UNK         0.0793 
    115 H115      -81.6080   21.9099  -75.5640 H         1 UNK         0.0793 
    116 H116      -80.3121   20.9578  -74.8602 H         1 UNK         0.0793 
    117 H117      -80.4252   24.4751  -75.9656 H         1 UNK         0.3047 
    118 H118      -79.8547   26.0248  -79.1634 H         1 UNK         0.0822 
    119 H119      -82.1462   26.8152  -78.6627 H         1 UNK         0.0807 
    120 H120      -82.3483   25.5691  -77.4334 H         1 UNK         0.0807 
    121 H121      -82.1907   25.1223  -79.1269 H         1 UNK         0.0807 
    122 H122      -80.5802   27.0996  -76.6096 H         1 UNK         0.2946 
    123 H123      -77.3627   27.7951  -75.4367 H         1 UNK         0.1144 
    124 H124      -77.9074   30.2094  -75.5812 H         1 UNK         0.0793 
    125 H125      -79.1437   29.8880  -76.7969 H         1 UNK         0.0793 
    126 H126      -77.4567   29.5863  -77.1601 H         1 UNK         0.0793 
    127 H127      -78.8863   27.6188  -73.8688 H         1 UNK         0.2896 
@<TRIPOS>BOND
     1    1    2 1    
     2    1   67 1    
     3    1   68 1    
     4    1   69 1    
     5    2    3 2    
     6    2    4 am   BACKBONE|DICT|INTERRES
     7    4    5 1    
     8    4   70 1    
     9    5    6 1    
    10    5   65 1    
    11    5   71 1    
    12    6    7 1    
    13    6   72 1    
    14    6   73 1    
    15    7    8 1    
    16    8    9 1    
    17    8   74 1    
    18    8   75 1    
    19    9   10 ar   
    20    9   14 ar   
    21   10   11 ar   
    22   10   76 1    
    23   11   12 ar   
    24   11   48 1    
    25   12   13 ar   
    26   12   77 1    
    27   13   14 ar   
    28   13   15 1    
    29   14   78 1    
    30   15   16 1    
    31   15   79 1    
    32   15   80 1    
    33   16   17 1    
    34   17   18 1    
    35   17   81 1    
    36   17   82 1    
    37   18   19 1    
    38   18   22 1    
    39   18   83 1    
    40   19   20 am   BACKBONE|DICT|INTERRES
    41   19   21 2    
    42   20   84 1    
    43   20   85 1    
    44   22   23 am   BACKBONE|DICT|INTERRES
    45   22   86 1    
    46   23   24 2    
    47   23   25 1    
    48   25   26 1    
    49   25   27 1    
    50   25   87 1    
    51   26   88 1    
    52   26   89 1    
    53   26   90 1    
    54   27   28 am   BACKBONE|DICT|INTERRES
    55   27   91 1    
    56   28   29 2    
    57   28   30 1    
    58   30   31 1    
    59   30   32 1    
    60   30   92 1    
    61   31   93 1    
    62   31   94 1    
    63   31   95 1    
    64   32   33 am   BACKBONE|DICT|INTERRES
    65   32   96 1    
    66   33   34 2    
    67   33   35 1    
    68   35   36 1    
    69   35   37 1    
    70   35   97 1    
    71   36   98 1    
    72   36   99 1    
    73   36  100 1    
    74   37   38 am   BACKBONE|DICT|INTERRES
    75   37  101 1    
    76   38   39 2    
    77   38   40 1    
    78   40   41 1    
    79   40   42 1    
    80   40  102 1    
    81   41  103 1    
    82   41  104 1    
    83   41  105 1    
    84   42   43 am   BACKBONE|DICT|INTERRES
    85   42  106 1    
    86   43   44 2    
    87   43   45 1    
    88   45   46 1    
    89   45   49 1    
    90   45  107 1    
    91   46   47 1    
    92   46  108 1    
    93   46  109 1    
    94   47   48 1    
    95   48  110 1    
    96   48  111 1    
    97   49   50 am   BACKBONE|DICT|INTERRES
    98   49  112 1    
    99   50   51 2    
   100   50   52 1    
   101   52   53 1    
   102   52   54 1    
   103   52  113 1    
   104   53  114 1    
   105   53  115 1    
   106   53  116 1    
   107   54   55 am   BACKBONE|DICT|INTERRES
   108   54  117 1    
   109   55   56 2    
   110   55   57 1    
   111   57   58 1    
   112   57   59 1    
   113   57  118 1    
   114   58  119 1    
   115   58  120 1    
   116   58  121 1    
   117   59   60 am   BACKBONE|DICT|INTERRES
   118   59  122 1    
   119   60   61 2    
   120   60   62 1    
   121   62   63 1    
   122   62   64 1    
   123   62  123 1    
   124   63  124 1    
   125   63  125 1    
   126   63  126 1    
   127   64   65 am   BACKBONE|DICT|INTERRES
   128   64  127 1    
   129   65   66 2    
@<TRIPOS>SUBSTRUCTURE
     1 UNK         1 GROUP             0       ****    0 ROOT    
