@<TRIPOS>MOLECULE
3R135
127   129    1
SMALL
USER_CHARGES


@<TRIPOS>ATOM
      1 CA        -77.7556   24.7782  -69.1846 C.3       0 UNK        -0.1998 
      2 C         -78.7435   25.0244  -70.3142 C.2       0 UNK         0.4909 
      3 O         -78.3759   24.9022  -71.4815 O.2       0 UNK        -0.5240 
      4 N         -80.0018   25.3422  -69.9750 N.am      1 UNK        -0.4739 
      5 CA        -81.0979   25.7083  -70.8941 C.3       1 UNK         0.0864 
      6 C6        -80.8511   27.0589  -71.6235 C.3       11 UNK        -0.0881 
      7 S7        -80.6114   28.4332  -70.4479 S.3       11 UNK        -0.2682 
      8 C8        -80.8113   29.8808  -71.5390 C.3       11 UNK         0.0289 
      9 C9        -79.7194   30.0130  -72.5981 C.ar      11 UNK        -0.0687 
     10 C10       -80.0618   30.3620  -73.9082 C.ar      11 UNK        -0.0823 
     11 C11       -79.0740   30.5398  -74.8825 C.ar      11 UNK        -0.0830 
     12 C12       -77.7293   30.3649  -74.5385 C.ar      11 UNK        -0.1021 
     13 C13       -77.3754   29.9817  -73.2414 C.ar      11 UNK        -0.0753 
     14 C14       -78.3714   29.8252  -72.2738 C.ar      11 UNK        -0.0933 
     15 C15       -75.9249   29.7067  -72.8807 C.3       11 UNK         0.0166 
     16 S16       -75.1282   31.1763  -72.1629 S.3       11 UNK        -0.2615 
     17 C17       -73.7030   30.4267  -71.2986 C.3       11 UNK        -0.0865 
     18 CA        -72.3729   30.5314  -72.0895 C.3       10 UNK         0.0862 
     19 C         -71.1802   30.0212  -71.2252 C.2       10 UNK         0.5551 
     20 N         -70.5118   28.9281  -71.5778 N.am      10 UNK        -0.7319 
     21 O         -70.8555   30.6355  -70.2122 O.2       10 UNK        -0.5018 
     22 N         -72.4786   29.8929  -73.4090 N.am      10 UNK        -0.4509 
     23 C         -71.6361   30.0879  -74.4301 C.2       10 UNK         0.4899 
     24 O         -70.7314   30.9240  -74.4182 O.2       10 UNK        -0.4839 
     25 CA        -71.8401   29.1926  -75.6699 C.3       9 UNK         0.0222 
     26 CB        -70.5276   28.9674  -76.4494 C.3       9 UNK        -0.1966 
     27 N         -72.4977   27.9085  -75.3795 N.am      9 UNK        -0.4218 
     28 C         -72.0724   26.9365  -74.5546 C.2       9 UNK         0.5020 
     29 O         -71.0504   27.0129  -73.8713 O.2       9 UNK        -0.5274 
     30 CA        -72.9532   25.6817  -74.4479 C.3       8 UNK         0.0270 
     31 CB        -74.0762   25.9073  -73.4206 C.3       8 UNK        -0.1976 
     32 N         -73.5339   25.3266  -75.7457 N.am      8 UNK        -0.4313 
     33 C         -73.0413   24.3965  -76.5773 C.2       8 UNK         0.5041 
     34 O         -72.1148   23.6384  -76.2878 O.2       8 UNK        -0.5577 
     35 CA        -73.6733   24.3011  -77.9826 C.3       7 UNK         0.0284 
     36 CB        -74.8511   23.3149  -77.9785 C.3       7 UNK        -0.1958 
     37 N         -74.1282   25.5947  -78.5001 N.am      7 UNK        -0.4454 
     38 C         -73.3277   26.6426  -78.7439 C.2       7 UNK         0.5089 
     39 O         -72.0993   26.5773  -78.7338 O.2       7 UNK        -0.5125 
     40 CA        -74.0015   28.0060  -78.9968 C.3       6 UNK         0.0408 
     41 CB        -73.9285   28.3712  -80.4874 C.3       6 UNK        -0.1791 
     42 N         -75.3981   28.0886  -78.5521 N.am      6 UNK        -0.4762 
     43 C         -75.8534   27.9044  -77.3034 C.2       6 UNK         0.5007 
     44 O         -75.1220   27.6603  -76.3428 O.2       6 UNK        -0.5032 
     45 CA        -77.3794   27.9604  -77.0973 C.3       5 UNK         0.0783 
     46 C46       -78.0435   29.0946  -77.9209 C.3       11 UNK        -0.0857 
     47 S47       -79.7373   29.4646  -77.3550 S.3       11 UNK        -0.2512 
     48 C48       -79.4702   30.9288  -76.3004 C.3       11 UNK         0.0225 
     49 N         -78.0307   26.6552  -77.2719 N.am      5 UNK        -0.4615 
     50 C         -77.9388   25.7882  -78.2887 C.2       4 UNK         0.5053 
     51 O         -77.1875   25.9300  -79.2541 O.2       4 UNK        -0.5105 
     52 CA        -78.8212   24.5275  -78.1848 C.3       4 UNK         0.0263 
     53 CB        -78.7508   23.6511  -79.4497 C.3       4 UNK        -0.1981 
     54 N         -78.4736   23.7066  -77.0219 N.am      4 UNK        -0.4224 
     55 C         -78.8027   23.9825  -75.7542 C.2       3 UNK         0.4895 
     56 O         -79.4492   24.9777  -75.4169 O.2       3 UNK        -0.5091 
     57 CA        -78.2671   23.0173  -74.6873 C.3       3 UNK         0.0250 
     58 CB        -76.9200   23.5214  -74.1454 C.3       3 UNK        -0.1996 
     59 N         -79.2167   22.8854  -73.5821 N.am      3 UNK        -0.4254 
     60 C         -80.3325   22.1418  -73.6391 C.2       2 UNK         0.5004 
     61 O         -80.6287   21.4367  -74.6053 O.2       2 UNK        -0.5226 
     62 CA        -81.2774   22.1602  -72.4220 C.3       2 UNK         0.0269 
     63 CB        -81.0866   20.8912  -71.5747 C.3       2 UNK        -0.1926 
     64 N         -81.1012   23.3338  -71.5652 N.am      2 UNK        -0.4687 
     65 C         -81.4937   24.5777  -71.8761 C.2       1 UNK         0.5165 
     66 O         -82.1562   24.8393  -72.8815 O.2       1 UNK        -0.5079 
     67 H67       -77.3592   23.7652  -69.2472 H         1 UNK         0.0900 
     68 H68       -76.9220   25.4758  -69.2605 H         1 UNK         0.0900 
     69 H69       -78.2156   24.9044  -68.2048 H         1 UNK         0.0900 
     70 H70       -80.2373   25.4062  -68.9941 H         1 UNK         0.2959 
     71 H71       -81.9785   25.8407  -70.2634 H         1 UNK         0.1079 
     72 H72       -81.6975   27.3128  -72.2645 H         1 UNK         0.0837 
     73 H73       -79.9799   26.9941  -72.2784 H         1 UNK         0.0837 
     74 H74       -80.8037   30.7814  -70.9240 H         1 UNK         0.0685 
     75 H75       -81.7979   29.8337  -72.0028 H         1 UNK         0.0685 
     76 H76       -81.1011   30.5062  -74.1709 H         1 UNK         0.1434 
     77 H77       -76.9589   30.5051  -75.2843 H         1 UNK         0.1329 
     78 H78       -78.0942   29.5510  -71.2651 H         1 UNK         0.1335 
     79 H79       -75.3705   29.3862  -73.7640 H         1 UNK         0.0680 
     80 H80       -75.8853   28.8763  -72.1740 H         1 UNK         0.0680 
     81 H81       -73.9199   29.3868  -71.0482 H         1 UNK         0.1032 
     82 H82       -73.6081   30.9431  -70.3412 H         1 UNK         0.1032 
     83 H83       -72.1819   31.5923  -72.2628 H         1 UNK         0.0461 
     84 H84       -69.7426   28.6186  -71.0057 H         1 UNK         0.3453 
     85 H85       -70.7592   28.4046  -72.4104 H         1 UNK         0.3453 
     86 H86       -73.1868   29.1834  -73.5054 H         1 UNK         0.2984 
     87 H87       -72.5227   29.7386  -76.3223 H         1 UNK         0.0554 
     88 H88       -70.6901   28.3549  -77.3353 H         1 UNK         0.0847 
     89 H89       -69.7734   28.4739  -75.8357 H         1 UNK         0.0847 
     90 H90       -70.1030   29.9130  -76.7884 H         1 UNK         0.0847 
     91 H91       -73.4060   27.7825  -75.8221 H         1 UNK         0.3141 
     92 H92       -72.3230   24.8679  -74.0826 H         1 UNK         0.0743 
     93 H93       -73.6728   26.2501  -72.4666 H         1 UNK         0.0784 
     94 H94       -74.6150   24.9816  -73.2226 H         1 UNK         0.0784 
     95 H95       -74.7994   26.6510  -73.7573 H         1 UNK         0.0784 
     96 H96       -74.2775   25.9305  -76.0811 H         1 UNK         0.3213 
     97 H97       -72.9080   23.9209  -78.6627 H         1 UNK         0.0855 
     98 H98       -75.6578   23.6605  -77.3337 H         1 UNK         0.0814 
     99 H99       -74.5386   22.3343  -77.6166 H         1 UNK         0.0814 
    100 H100      -75.2557   23.1766  -78.9813 H         1 UNK         0.0814 
    101 H101      -75.1272   25.7291  -78.6105 H         1 UNK         0.3105 
    102 H102      -73.4360   28.7518  -78.4355 H         1 UNK         0.0547 
    103 H103      -72.8981   28.3506  -80.8454 H         1 UNK         0.0837 
    104 H104      -74.5005   27.6741  -81.1014 H         1 UNK         0.0837 
    105 H105      -74.3117   29.3751  -80.6708 H         1 UNK         0.0837 
    106 H106      -76.0863   28.1960  -79.2845 H         1 UNK         0.3020 
    107 H107      -77.5122   28.1909  -76.0410 H         1 UNK         0.1245 
    108 H108      -77.4519   30.0111  -77.8767 H         1 UNK         0.0781 
    109 H109      -78.0971   28.8226  -78.9764 H         1 UNK         0.0781 
    110 H110      -80.3946   31.5081  -76.2759 H         1 UNK         0.0836 
    111 H111      -78.7219   31.5887  -76.7416 H         1 UNK         0.0836 
    112 H112      -78.6424   26.3771  -76.5087 H         1 UNK         0.3022 
    113 H113      -79.8538   24.8670  -78.0767 H         1 UNK         0.0747 
    114 H114      -79.4327   22.8031  -79.3836 H         1 UNK         0.0793 
    115 H115      -77.7462   23.2621  -79.6195 H         1 UNK         0.0793 
    116 H116      -79.0328   24.2216  -80.3358 H         1 UNK         0.0793 
    117 H117      -77.9276   22.8783  -77.2101 H         1 UNK         0.3047 
    118 H118      -78.1142   22.0328  -75.1353 H         1 UNK         0.0822 
    119 H119      -76.5443   22.8786  -73.3493 H         1 UNK         0.0807 
    120 H120      -77.0031   24.5334  -73.7464 H         1 UNK         0.0807 
    121 H121      -76.1620   23.5436  -74.9286 H         1 UNK         0.0807 
    122 H122      -79.0645   23.4950  -72.7842 H         1 UNK         0.2946 
    123 H123      -82.2995   22.1657  -72.8080 H         1 UNK         0.1144 
    124 H124      -81.2412   19.9938  -72.1756 H         1 UNK         0.0793 
    125 H125      -81.7990   20.8529  -70.7504 H         1 UNK         0.0793 
    126 H126      -80.0815   20.8329  -71.1550 H         1 UNK         0.0793 
    127 H127      -80.5653   23.2077  -70.7186 H         1 UNK         0.2896 
@<TRIPOS>BOND
     1    1    2 1    
     2    1   67 1    
     3    1   68 1    
     4    1   69 1    
     5    2    3 2    
     6    2    4 am   BACKBONE|DICT|INTERRES
     7    4    5 1    
     8    4   70 1    
     9    5    6 1    
    10    5   65 1    
    11    5   71 1    
    12    6    7 1    
    13    6   72 1    
    14    6   73 1    
    15    7    8 1    
    16    8    9 1    
    17    8   74 1    
    18    8   75 1    
    19    9   10 ar   
    20    9   14 ar   
    21   10   11 ar   
    22   10   76 1    
    23   11   12 ar   
    24   11   48 1    
    25   12   13 ar   
    26   12   77 1    
    27   13   14 ar   
    28   13   15 1    
    29   14   78 1    
    30   15   16 1    
    31   15   79 1    
    32   15   80 1    
    33   16   17 1    
    34   17   18 1    
    35   17   81 1    
    36   17   82 1    
    37   18   19 1    
    38   18   22 1    
    39   18   83 1    
    40   19   20 am   BACKBONE|DICT|INTERRES
    41   19   21 2    
    42   20   84 1    
    43   20   85 1    
    44   22   23 am   BACKBONE|DICT|INTERRES
    45   22   86 1    
    46   23   24 2    
    47   23   25 1    
    48   25   26 1    
    49   25   27 1    
    50   25   87 1    
    51   26   88 1    
    52   26   89 1    
    53   26   90 1    
    54   27   28 am   BACKBONE|DICT|INTERRES
    55   27   91 1    
    56   28   29 2    
    57   28   30 1    
    58   30   31 1    
    59   30   32 1    
    60   30   92 1    
    61   31   93 1    
    62   31   94 1    
    63   31   95 1    
    64   32   33 am   BACKBONE|DICT|INTERRES
    65   32   96 1    
    66   33   34 2    
    67   33   35 1    
    68   35   36 1    
    69   35   37 1    
    70   35   97 1    
    71   36   98 1    
    72   36   99 1    
    73   36  100 1    
    74   37   38 am   BACKBONE|DICT|INTERRES
    75   37  101 1    
    76   38   39 2    
    77   38   40 1    
    78   40   41 1    
    79   40   42 1    
    80   40  102 1    
    81   41  103 1    
    82   41  104 1    
    83   41  105 1    
    84   42   43 am   BACKBONE|DICT|INTERRES
    85   42  106 1    
    86   43   44 2    
    87   43   45 1    
    88   45   46 1    
    89   45   49 1    
    90   45  107 1    
    91   46   47 1    
    92   46  108 1    
    93   46  109 1    
    94   47   48 1    
    95   48  110 1    
    96   48  111 1    
    97   49   50 am   BACKBONE|DICT|INTERRES
    98   49  112 1    
    99   50   51 2    
   100   50   52 1    
   101   52   53 1    
   102   52   54 1    
   103   52  113 1    
   104   53  114 1    
   105   53  115 1    
   106   53  116 1    
   107   54   55 am   BACKBONE|DICT|INTERRES
   108   54  117 1    
   109   55   56 2    
   110   55   57 1    
   111   57   58 1    
   112   57   59 1    
   113   57  118 1    
   114   58  119 1    
   115   58  120 1    
   116   58  121 1    
   117   59   60 am   BACKBONE|DICT|INTERRES
   118   59  122 1    
   119   60   61 2    
   120   60   62 1    
   121   62   63 1    
   122   62   64 1    
   123   62  123 1    
   124   63  124 1    
   125   63  125 1    
   126   63  126 1    
   127   64   65 am   BACKBONE|DICT|INTERRES
   128   64  127 1    
   129   65   66 2    
@<TRIPOS>SUBSTRUCTURE
     1 UNK         1 GROUP             0       ****    0 ROOT    
