@<TRIPOS>MOLECULE
3R135
127   129    1
SMALL
USER_CHARGES


@<TRIPOS>ATOM
      1 CA        -79.5190   30.7381  -76.2278 C.3       0 UNK        -0.1998 
      2 C         -79.6006   29.5620  -75.2664 C.2       0 UNK         0.4909 
      3 O         -78.8004   28.6367  -75.3695 O.2       0 UNK        -0.5240 
      4 N         -80.5537   29.5958  -74.3268 N.am      1 UNK        -0.4739 
      5 CA        -80.7971   28.5320  -73.3469 C.3       1 UNK         0.0864 
      6 C6        -81.7535   29.0361  -72.2372 C.3       11 UNK        -0.0881 
      7 S7        -81.6916   28.0417  -70.7094 S.3       11 UNK        -0.2682 
      8 C8        -80.5768   29.0269  -69.6523 C.3       11 UNK         0.0289 
      9 C9        -79.1171   28.8264  -70.0330 C.ar      11 UNK        -0.0687 
     10 C10       -78.5158   27.5823  -69.8191 C.ar      11 UNK        -0.0823 
     11 C11       -77.1936   27.3588  -70.2074 C.ar      11 UNK        -0.0830 
     12 C12       -76.4528   28.4071  -70.7582 C.ar      11 UNK        -0.1021 
     13 C13       -77.0442   29.6485  -70.9964 C.ar      11 UNK        -0.0753 
     14 C14       -78.3770   29.8592  -70.6226 C.ar      11 UNK        -0.0933 
     15 C15       -76.2558   30.7172  -71.7389 C.3       11 UNK         0.0166 
     16 S16       -76.5816   30.5725  -73.5209 S.3       11 UNK        -0.2615 
     17 C17       -75.2008   31.4749  -74.2967 C.3       11 UNK        -0.0865 
     18 CA        -74.4390   30.5698  -75.3108 C.3       10 UNK         0.0862 
     19 C         -73.6019   31.3667  -76.3512 C.2       10 UNK         0.5551 
     20 N         -73.1702   30.7179  -77.4244 N.am      10 UNK        -0.7319 
     21 O         -73.3453   32.5593  -76.1992 O.2       10 UNK        -0.5018 
     22 N         -73.6635   29.4977  -74.6607 N.am      10 UNK        -0.4509 
     23 C         -72.5460   29.6637  -73.9389 C.2       10 UNK         0.4899 
     24 O         -72.0378   30.7610  -73.7067 O.2       10 UNK        -0.4839 
     25 CA        -71.8653   28.4165  -73.3555 C.3       9 UNK         0.0222 
     26 CB        -72.3708   28.1378  -71.9295 C.3       9 UNK        -0.1966 
     27 N         -72.0259   27.2070  -74.1700 N.am      9 UNK        -0.4218 
     28 C         -71.0724   26.2780  -74.3218 C.2       9 UNK         0.5020 
     29 O         -69.9202   26.4040  -73.9022 O.2       9 UNK        -0.5274 
     30 CA        -71.4594   24.9570  -75.0082 C.3       8 UNK         0.0270 
     31 CB        -72.0243   23.9687  -73.9747 C.3       8 UNK        -0.1976 
     32 N         -72.4023   25.0911  -76.1206 N.am      8 UNK        -0.4313 
     33 C         -72.0858   25.6025  -77.3185 C.2       8 UNK         0.5041 
     34 O         -70.9953   26.1115  -77.5809 O.2       8 UNK        -0.5577 
     35 CA        -73.1484   25.4955  -78.4243 C.3       7 UNK         0.0284 
     36 CB        -73.1826   24.0739  -79.0094 C.3       7 UNK        -0.1958 
     37 N         -74.4804   25.8537  -77.9443 N.am      7 UNK        -0.4454 
     38 C         -74.9128   27.1119  -77.7920 C.2       7 UNK         0.5089 
     39 O         -74.2583   28.1109  -78.0932 O.2       7 UNK        -0.5125 
     40 CA        -76.2992   27.2808  -77.1485 C.3       6 UNK         0.0408 
     41 CB        -77.4081   27.1039  -78.1973 C.3       6 UNK        -0.1791 
     42 N         -76.5337   26.3667  -76.0277 N.am      6 UNK        -0.4762 
     43 C         -75.7493   26.2512  -74.9468 C.2       6 UNK         0.5007 
     44 O         -74.7241   26.9078  -74.7660 O.2       6 UNK        -0.5032 
     45 CA        -76.1420   25.1931  -73.9020 C.3       5 UNK         0.0783 
     46 C46       -77.1801   25.7855  -72.9286 C.3       11 UNK        -0.0857 
     47 S47       -77.3346   24.8382  -71.3744 S.3       11 UNK        -0.2512 
     48 C48       -76.5936   25.9613  -70.1346 C.3       11 UNK         0.0225 
     49 N         -76.6061   23.9457  -74.5161 N.am      5 UNK        -0.4615 
     50 C         -75.8999   23.1803  -75.3595 C.2       4 UNK         0.5053 
     51 O         -74.7491   23.4321  -75.7190 O.2       4 UNK        -0.5105 
     52 CA        -76.6206   21.9450  -75.9222 C.3       4 UNK         0.0263 
     53 CB        -76.6172   20.8002  -74.8966 C.3       4 UNK        -0.1981 
     54 N         -77.9978   22.2501  -76.3209 N.am      4 UNK        -0.4224 
     55 C         -78.3214   22.9782  -77.3999 C.2       3 UNK         0.4895 
     56 O         -77.4992   23.3929  -78.2175 O.2       3 UNK        -0.5091 
     57 CA        -79.8114   23.3260  -77.5862 C.3       3 UNK         0.0250 
     58 CB        -80.5390   22.1987  -78.3365 C.3       3 UNK        -0.1996 
     59 N         -80.5253   23.6268  -76.3363 N.am      3 UNK        -0.4254 
     60 C         -80.1979   24.6197  -75.4970 C.2       2 UNK         0.5004 
     61 O         -79.2192   25.3471  -75.6679 O.2       2 UNK        -0.5226 
     62 CA        -81.0732   24.7867  -74.2387 C.3       2 UNK         0.0269 
     63 CB        -80.7703   23.6734  -73.2211 C.3       2 UNK        -0.1926 
     64 N         -80.8505   26.0833  -73.5898 N.am      2 UNK        -0.4687 
     65 C         -81.3189   27.2528  -74.0445 C.2       1 UNK         0.5165 
     66 O         -82.1373   27.3474  -74.9644 O.2       1 UNK        -0.5079 
     67 H67       -78.5415   31.2139  -76.1499 H         1 UNK         0.0900 
     68 H68       -80.2806   31.4894  -76.0204 H         1 UNK         0.0900 
     69 H69       -79.6498   30.3929  -77.2530 H         1 UNK         0.0900 
     70 H70       -81.2042   30.3676  -74.3098 H         1 UNK         0.2959 
     71 H71       -79.8294   28.3023  -72.8932 H         1 UNK         0.1079 
     72 H72       -81.5108   30.0672  -71.9754 H         1 UNK         0.0837 
     73 H73       -82.7845   29.0628  -72.5958 H         1 UNK         0.0837 
     74 H74       -80.8560   30.0809  -69.6929 H         1 UNK         0.0685 
     75 H75       -80.7155   28.7166  -68.6157 H         1 UNK         0.0685 
     76 H76       -79.0958   26.7706  -69.4007 H         1 UNK         0.1434 
     77 H77       -75.4368   28.2342  -71.0802 H         1 UNK         0.1329 
     78 H78       -78.8439   30.8140  -70.8217 H         1 UNK         0.1335 
     79 H79       -75.1878   30.5998  -71.5476 H         1 UNK         0.0680 
     80 H80       -76.5342   31.7133  -71.3920 H         1 UNK         0.0680 
     81 H81       -74.5248   31.8771  -73.5410 H         1 UNK         0.1032 
     82 H82       -75.6336   32.3394  -74.8031 H         1 UNK         0.1032 
     83 H83       -75.1986   30.0627  -75.9053 H         1 UNK         0.0461 
     84 H84       -72.6239   31.2099  -78.1129 H         1 UNK         0.3453 
     85 H85       -73.4330   29.7488  -77.5857 H         1 UNK         0.3453 
     86 H86       -74.0473   28.5627  -74.7704 H         1 UNK         0.2984 
     87 H87       -70.8047   28.6689  -73.2902 H         1 UNK         0.0554 
     88 H88       -71.7546   27.3889  -71.4318 H         1 UNK         0.0847 
     89 H89       -73.3965   27.7711  -71.9394 H         1 UNK         0.0847 
     90 H90       -72.3457   29.0387  -71.3147 H         1 UNK         0.0847 
     91 H91       -72.9578   27.0195  -74.5365 H         1 UNK         0.3141 
     92 H92       -70.5410   24.5228  -75.4097 H         1 UNK         0.0743 
     93 H93       -71.3194   23.8123  -73.1569 H         1 UNK         0.0784 
     94 H94       -72.9547   24.3304  -73.5377 H         1 UNK         0.0784 
     95 H95       -72.2210   22.9943  -74.4226 H         1 UNK         0.0784 
     96 H96       -73.3100   24.6464  -76.0025 H         1 UNK         0.3213 
     97 H97       -72.8673   26.1828  -79.2257 H         1 UNK         0.0855 
     98 H98       -72.2007   23.7839  -79.3859 H         1 UNK         0.0814 
     99 H99       -73.8818   24.0060  -79.8431 H         1 UNK         0.0814 
    100 H100      -73.4783   23.3338  -78.2645 H         1 UNK         0.0814 
    101 H101      -75.0804   25.1006  -77.6347 H         1 UNK         0.3105 
    102 H102      -76.3675   28.2951  -76.7549 H         1 UNK         0.0547 
    103 H103      -77.2826   27.8080  -79.0206 H         1 UNK         0.0837 
    104 H104      -77.4085   26.0993  -78.6209 H         1 UNK         0.0837 
    105 H105      -78.3925   27.2828  -77.7640 H         1 UNK         0.0837 
    106 H106      -77.4162   25.8586  -76.0316 H         1 UNK         0.3020 
    107 H107      -75.2367   24.9618  -73.3381 H         1 UNK         0.1245 
    108 H108      -78.1597   25.8283  -73.3983 H         1 UNK         0.0781 
    109 H109      -76.9389   26.8234  -72.7151 H         1 UNK         0.0781 
    110 H110      -75.5136   25.9947  -70.2868 H         1 UNK         0.0836 
    111 H111      -76.7505   25.5477  -69.1375 H         1 UNK         0.0836 
    112 H112      -77.5550   23.6800  -74.3054 H         1 UNK         0.3022 
    113 H113      -76.0703   21.6120  -76.8051 H         1 UNK         0.0747 
    114 H114      -77.0617   19.8955  -75.3118 H         1 UNK         0.0793 
    115 H115      -75.5983   20.5503  -74.5969 H         1 UNK         0.0793 
    116 H116      -77.1680   21.0604  -73.9917 H         1 UNK         0.0793 
    117 H117      -78.7388   21.9338  -75.7129 H         1 UNK         0.3047 
    118 H118      -79.8528   24.2255  -78.2045 H         1 UNK         0.0822 
    119 H119      -81.5645   22.4793  -78.5777 H         1 UNK         0.0807 
    120 H120      -80.5701   21.2774  -77.7535 H         1 UNK         0.0807 
    121 H121      -80.0385   21.9711  -79.2790 H         1 UNK         0.0807 
    122 H122      -81.3332   23.0568  -76.1289 H         1 UNK         0.2946 
    123 H123      -82.1218   24.7207  -74.5384 H         1 UNK         0.1144 
    124 H124      -81.3806   23.7811  -72.3240 H         1 UNK         0.0793 
    125 H125      -79.7242   23.6777  -72.9139 H         1 UNK         0.0793 
    126 H126      -80.9840   22.6877  -73.6358 H         1 UNK         0.0793 
    127 H127      -80.1919   26.0930  -72.8251 H         1 UNK         0.2896 
@<TRIPOS>BOND
     1    1    2 1    
     2    1   67 1    
     3    1   68 1    
     4    1   69 1    
     5    2    3 2    
     6    2    4 am   BACKBONE|DICT|INTERRES
     7    4    5 1    
     8    4   70 1    
     9    5    6 1    
    10    5   65 1    
    11    5   71 1    
    12    6    7 1    
    13    6   72 1    
    14    6   73 1    
    15    7    8 1    
    16    8    9 1    
    17    8   74 1    
    18    8   75 1    
    19    9   10 ar   
    20    9   14 ar   
    21   10   11 ar   
    22   10   76 1    
    23   11   12 ar   
    24   11   48 1    
    25   12   13 ar   
    26   12   77 1    
    27   13   14 ar   
    28   13   15 1    
    29   14   78 1    
    30   15   16 1    
    31   15   79 1    
    32   15   80 1    
    33   16   17 1    
    34   17   18 1    
    35   17   81 1    
    36   17   82 1    
    37   18   19 1    
    38   18   22 1    
    39   18   83 1    
    40   19   20 am   BACKBONE|DICT|INTERRES
    41   19   21 2    
    42   20   84 1    
    43   20   85 1    
    44   22   23 am   BACKBONE|DICT|INTERRES
    45   22   86 1    
    46   23   24 2    
    47   23   25 1    
    48   25   26 1    
    49   25   27 1    
    50   25   87 1    
    51   26   88 1    
    52   26   89 1    
    53   26   90 1    
    54   27   28 am   BACKBONE|DICT|INTERRES
    55   27   91 1    
    56   28   29 2    
    57   28   30 1    
    58   30   31 1    
    59   30   32 1    
    60   30   92 1    
    61   31   93 1    
    62   31   94 1    
    63   31   95 1    
    64   32   33 am   BACKBONE|DICT|INTERRES
    65   32   96 1    
    66   33   34 2    
    67   33   35 1    
    68   35   36 1    
    69   35   37 1    
    70   35   97 1    
    71   36   98 1    
    72   36   99 1    
    73   36  100 1    
    74   37   38 am   BACKBONE|DICT|INTERRES
    75   37  101 1    
    76   38   39 2    
    77   38   40 1    
    78   40   41 1    
    79   40   42 1    
    80   40  102 1    
    81   41  103 1    
    82   41  104 1    
    83   41  105 1    
    84   42   43 am   BACKBONE|DICT|INTERRES
    85   42  106 1    
    86   43   44 2    
    87   43   45 1    
    88   45   46 1    
    89   45   49 1    
    90   45  107 1    
    91   46   47 1    
    92   46  108 1    
    93   46  109 1    
    94   47   48 1    
    95   48  110 1    
    96   48  111 1    
    97   49   50 am   BACKBONE|DICT|INTERRES
    98   49  112 1    
    99   50   51 2    
   100   50   52 1    
   101   52   53 1    
   102   52   54 1    
   103   52  113 1    
   104   53  114 1    
   105   53  115 1    
   106   53  116 1    
   107   54   55 am   BACKBONE|DICT|INTERRES
   108   54  117 1    
   109   55   56 2    
   110   55   57 1    
   111   57   58 1    
   112   57   59 1    
   113   57  118 1    
   114   58  119 1    
   115   58  120 1    
   116   58  121 1    
   117   59   60 am   BACKBONE|DICT|INTERRES
   118   59  122 1    
   119   60   61 2    
   120   60   62 1    
   121   62   63 1    
   122   62   64 1    
   123   62  123 1    
   124   63  124 1    
   125   63  125 1    
   126   63  126 1    
   127   64   65 am   BACKBONE|DICT|INTERRES
   128   64  127 1    
   129   65   66 2    
@<TRIPOS>SUBSTRUCTURE
     1 UNK         1 GROUP             0       ****    0 ROOT    
