@<TRIPOS>MOLECULE
3R135
127   129    1
SMALL
USER_CHARGES


@<TRIPOS>ATOM
      1 CA        -85.6240   27.1966  -70.4683 C.3       0 UNK        -0.1998 
      2 C         -85.0905   26.9137  -71.8644 C.2       0 UNK         0.4909 
      3 O         -85.8643   26.5688  -72.7580 O.2       0 UNK        -0.5240 
      4 N         -83.7737   27.0606  -72.0592 N.am      1 UNK        -0.4739 
      5 CA        -83.0739   26.7950  -73.3229 C.3       1 UNK         0.0864 
      6 C6        -81.6491   27.4083  -73.3338 C.3       11 UNK        -0.0881 
      7 S7        -80.6142   26.8981  -71.9108 S.3       11 UNK        -0.2682 
      8 C8        -79.9639   28.4903  -71.3198 C.3       11 UNK         0.0289 
      9 C9        -78.7677   28.9488  -72.1416 C.ar      11 UNK        -0.0687 
     10 C10       -78.9504   29.7306  -73.2865 C.ar      11 UNK        -0.0823 
     11 C11       -77.8517   30.1794  -74.0263 C.ar      11 UNK        -0.0830 
     12 C12       -76.5602   29.8471  -73.6029 C.ar      11 UNK        -0.1021 
     13 C13       -76.3650   29.0619  -72.4639 C.ar      11 UNK        -0.0753 
     14 C14       -77.4719   28.6115  -71.7392 C.ar      11 UNK        -0.0933 
     15 C15       -74.9566   28.7117  -72.0159 C.3       11 UNK         0.0166 
     16 S16       -74.1796   30.1122  -71.1534 S.3       11 UNK        -0.2615 
     17 C17       -72.5639   29.3949  -70.7018 C.3       11 UNK        -0.0865 
     18 CA        -71.4117   29.8327  -71.6444 C.3       10 UNK         0.0862 
     19 C         -70.0489   29.3137  -71.0956 C.2       10 UNK         0.5551 
     20 N         -69.4245   28.3091  -71.7005 N.am      10 UNK        -0.7319 
     21 O         -69.5534   29.8352  -70.0997 O.2       10 UNK        -0.5018 
     22 N         -71.6824   29.4575  -73.0406 N.am      10 UNK        -0.4509 
     23 C         -70.9898   29.8750  -74.1073 C.2       10 UNK         0.4899 
     24 O         -70.1379   30.7636  -74.0583 O.2       10 UNK        -0.4839 
     25 CA        -71.2912   29.1795  -75.4543 C.3       9 UNK         0.0222 
     26 CB        -70.0304   29.0482  -76.3331 C.3       9 UNK        -0.1966 
     27 N         -71.9629   27.8743  -75.3478 N.am      9 UNK        -0.4218 
     28 C         -71.5498   26.7894  -74.6709 C.2       9 UNK         0.5020 
     29 O         -70.5421   26.7580  -73.9625 O.2       9 UNK        -0.5274 
     30 CA        -72.4244   25.5318  -74.7882 C.3       8 UNK         0.0270 
     31 CB        -73.7141   25.6765  -73.9618 C.3       8 UNK        -0.1976 
     32 N         -72.7658   25.2149  -76.1742 N.am      8 UNK        -0.4313 
     33 C         -71.8925   24.8152  -77.1095 C.2       8 UNK         0.5041 
     34 O         -70.6929   24.6296  -76.9007 O.2       8 UNK        -0.5577 
     35 CA        -72.4542   24.5820  -78.5192 C.3       7 UNK         0.0284 
     36 CB        -73.1304   23.2054  -78.6160 C.3       7 UNK        -0.1958 
     37 N         -73.4051   25.6303  -78.8921 N.am      7 UNK        -0.4454 
     38 C         -73.0475   26.8209  -79.3918 C.2       7 UNK         0.5089 
     39 O         -71.8847   27.1358  -79.6471 O.2       7 UNK        -0.5125 
     40 CA        -74.1714   27.8371  -79.6645 C.3       6 UNK         0.0408 
     41 CB        -74.6212   27.7547  -81.1318 C.3       6 UNK        -0.1791 
     42 N         -75.3405   27.6887  -78.7929 N.am      6 UNK        -0.4762 
     43 C         -75.3413   27.9299  -77.4739 C.2       6 UNK         0.5007 
     44 O         -74.3370   28.2360  -76.8298 O.2       6 UNK        -0.5032 
     45 CA        -76.6886   27.7475  -76.7422 C.3       5 UNK         0.0783 
     46 C46       -77.6892   28.8928  -77.0574 C.3       11 UNK        -0.0857 
     47 S47       -77.0662   30.5722  -76.6924 S.3       11 UNK        -0.2512 
     48 C48       -78.0733   31.0588  -75.2525 C.3       11 UNK         0.0225 
     49 N         -77.3125   26.4393  -76.9882 N.am      5 UNK        -0.4615 
     50 C         -76.7251   25.2360  -76.9388 C.2       4 UNK         0.5053 
     51 O         -75.5227   25.0539  -76.7423 O.2       4 UNK        -0.5105 
     52 CA        -77.6491   24.0212  -77.1064 C.3       4 UNK         0.0263 
     53 CB        -76.9962   22.9158  -77.9542 C.3       4 UNK        -0.1981 
     54 N         -77.9835   23.4843  -75.7892 N.am      4 UNK        -0.4224 
     55 C         -78.8744   24.0341  -74.9563 C.2       3 UNK         0.4895 
     56 O         -79.5776   25.0047  -75.2477 O.2       3 UNK        -0.5091 
     57 CA        -78.9520   23.4260  -73.5489 C.3       3 UNK         0.0250 
     58 CB        -77.9946   24.1666  -72.5992 C.3       3 UNK        -0.1996 
     59 N         -80.3159   23.5202  -73.0312 N.am      3 UNK        -0.4254 
     60 C         -81.2947   22.6463  -73.3065 C.2       2 UNK         0.5004 
     61 O         -81.1213   21.5996  -73.9326 O.2       2 UNK        -0.5226 
     62 CA        -82.7092   22.9934  -72.8038 C.3       2 UNK         0.0269 
     63 CB        -82.9905   22.3024  -71.4598 C.3       2 UNK        -0.1926 
     64 N         -82.9224   24.4353  -72.6571 N.am      2 UNK        -0.4687 
     65 C         -83.0335   25.2947  -73.6813 C.2       1 UNK         0.5165 
     66 O         -83.0970   24.9473  -74.8614 O.2       1 UNK        -0.5079 
     67 H67       -86.3642   27.9954  -70.5042 H         1 UNK         0.0900 
     68 H68       -84.8326   27.4985  -69.7825 H         1 UNK         0.0900 
     69 H69       -86.1029   26.3059  -70.0624 H         1 UNK         0.0900 
     70 H70       -83.1820   27.3464  -71.2914 H         1 UNK         0.2959 
     71 H71       -83.6445   27.2809  -74.1179 H         1 UNK         0.1079 
     72 H72       -81.1211   27.1567  -74.2563 H         1 UNK         0.0837 
     73 H73       -81.7422   28.4943  -73.3412 H         1 UNK         0.0837 
     74 H74       -79.6697   28.3768  -70.2753 H         1 UNK         0.0685 
     75 H75       -80.7502   29.2467  -71.3279 H         1 UNK         0.0685 
     76 H76       -79.9504   30.0016  -73.5943 H         1 UNK         0.1434 
     77 H77       -75.7023   30.2050  -74.1561 H         1 UNK         0.1329 
     78 H78       -77.3256   28.0084  -70.8534 H         1 UNK         0.1335 
     79 H79       -74.3582   28.4423  -72.8860 H         1 UNK         0.0680 
     80 H80       -74.9704   27.8388  -71.3611 H         1 UNK         0.0680 
     81 H81       -72.3509   29.7106  -69.6784 H         1 UNK         0.1032 
     82 H82       -72.6390   28.3063  -70.6646 H         1 UNK         0.1032 
     83 H83       -71.3567   30.9227  -71.6146 H         1 UNK         0.0461 
     84 H84       -69.8298   27.8563  -72.5147 H         1 UNK         0.3453 
     85 H85       -68.5432   27.9855  -71.3355 H         1 UNK         0.3453 
     86 H86       -72.3565   28.7227  -73.1791 H         1 UNK         0.2984 
     87 H87       -71.9921   29.8319  -75.9771 H         1 UNK         0.0554 
     88 H88       -70.2639   28.5859  -77.2927 H         1 UNK         0.0847 
     89 H89       -69.2637   28.4431  -75.8478 H         1 UNK         0.0847 
     90 H90       -69.5913   30.0238  -76.5446 H         1 UNK         0.0847 
     91 H91       -72.8313   27.8087  -75.8786 H         1 UNK         0.3141 
     92 H92       -71.8542   24.6929  -74.3836 H         1 UNK         0.0743 
     93 H93       -73.4902   25.9226  -72.9230 H         1 UNK         0.0784 
     94 H94       -74.3643   26.4579  -74.3570 H         1 UNK         0.0784 
     95 H95       -74.2841   24.7471  -73.9578 H         1 UNK         0.0784 
     96 H96       -73.7510   25.2798  -76.4272 H         1 UNK         0.3213 
     97 H97       -71.6178   24.5933  -79.2219 H         1 UNK         0.0855 
     98 H98       -73.9412   23.1025  -77.8960 H         1 UNK         0.0814 
     99 H99       -72.4146   22.4079  -78.4125 H         1 UNK         0.0814 
    100 H100      -73.5379   23.0297  -79.6116 H         1 UNK         0.0814 
    101 H101      -74.3754   25.4783  -78.6514 H         1 UNK         0.3105 
    102 H102      -73.7563   28.8327  -79.4935 H         1 UNK         0.0547 
    103 H103      -75.0698   26.7881  -81.3642 H         1 UNK         0.0837 
    104 H104      -75.3493   28.5305  -81.3691 H         1 UNK         0.0837 
    105 H105      -73.7753   27.8912  -81.8071 H         1 UNK         0.0837 
    106 H106      -76.2081   27.4167  -79.2329 H         1 UNK         0.3020 
    107 H107      -76.4681   27.7813  -75.6732 H         1 UNK         0.1245 
    108 H108      -78.6142   28.7345  -76.5003 H         1 UNK         0.0781 
    109 H109      -77.9738   28.8674  -78.1108 H         1 UNK         0.0781 
    110 H110      -77.8290   32.0885  -74.9885 H         1 UNK         0.0836 
    111 H111      -79.1239   31.0590  -75.5474 H         1 UNK         0.0836 
    112 H112      -78.3162   26.4547  -77.1037 H         1 UNK         0.3022 
    113 H113      -78.5633   24.3369  -77.6142 H         1 UNK         0.0747 
    114 H114      -76.6492   23.3071  -78.9116 H         1 UNK         0.0793 
    115 H115      -77.7049   22.1159  -78.1692 H         1 UNK         0.0793 
    116 H116      -76.1386   22.4703  -77.4501 H         1 UNK         0.0793 
    117 H117      -77.4153   22.7166  -75.4607 H         1 UNK         0.3047 
    118 H118      -78.6568   22.3752  -73.5923 H         1 UNK         0.0822 
    119 H119      -76.9592   24.0554  -72.9240 H         1 UNK         0.0807 
    120 H120      -78.0594   23.7759  -71.5836 H         1 UNK         0.0807 
    121 H121      -78.2065   25.2359  -72.5619 H         1 UNK         0.0807 
    122 H122      -80.5606   24.3855  -72.5696 H         1 UNK         0.2946 
    123 H123      -83.4196   22.6142  -73.5423 H         1 UNK         0.1144 
    124 H124      -82.8653   21.2219  -71.5436 H         1 UNK         0.0793 
    125 H125      -84.0127   22.4836  -71.1267 H         1 UNK         0.0793 
    126 H126      -82.3145   22.6491  -70.6771 H         1 UNK         0.0793 
    127 H127      -82.8932   24.8138  -71.7212 H         1 UNK         0.2896 
@<TRIPOS>BOND
     1    1    2 1    
     2    1   67 1    
     3    1   68 1    
     4    1   69 1    
     5    2    3 2    
     6    2    4 am   BACKBONE|DICT|INTERRES
     7    4    5 1    
     8    4   70 1    
     9    5    6 1    
    10    5   65 1    
    11    5   71 1    
    12    6    7 1    
    13    6   72 1    
    14    6   73 1    
    15    7    8 1    
    16    8    9 1    
    17    8   74 1    
    18    8   75 1    
    19    9   10 ar   
    20    9   14 ar   
    21   10   11 ar   
    22   10   76 1    
    23   11   12 ar   
    24   11   48 1    
    25   12   13 ar   
    26   12   77 1    
    27   13   14 ar   
    28   13   15 1    
    29   14   78 1    
    30   15   16 1    
    31   15   79 1    
    32   15   80 1    
    33   16   17 1    
    34   17   18 1    
    35   17   81 1    
    36   17   82 1    
    37   18   19 1    
    38   18   22 1    
    39   18   83 1    
    40   19   20 am   BACKBONE|DICT|INTERRES
    41   19   21 2    
    42   20   84 1    
    43   20   85 1    
    44   22   23 am   BACKBONE|DICT|INTERRES
    45   22   86 1    
    46   23   24 2    
    47   23   25 1    
    48   25   26 1    
    49   25   27 1    
    50   25   87 1    
    51   26   88 1    
    52   26   89 1    
    53   26   90 1    
    54   27   28 am   BACKBONE|DICT|INTERRES
    55   27   91 1    
    56   28   29 2    
    57   28   30 1    
    58   30   31 1    
    59   30   32 1    
    60   30   92 1    
    61   31   93 1    
    62   31   94 1    
    63   31   95 1    
    64   32   33 am   BACKBONE|DICT|INTERRES
    65   32   96 1    
    66   33   34 2    
    67   33   35 1    
    68   35   36 1    
    69   35   37 1    
    70   35   97 1    
    71   36   98 1    
    72   36   99 1    
    73   36  100 1    
    74   37   38 am   BACKBONE|DICT|INTERRES
    75   37  101 1    
    76   38   39 2    
    77   38   40 1    
    78   40   41 1    
    79   40   42 1    
    80   40  102 1    
    81   41  103 1    
    82   41  104 1    
    83   41  105 1    
    84   42   43 am   BACKBONE|DICT|INTERRES
    85   42  106 1    
    86   43   44 2    
    87   43   45 1    
    88   45   46 1    
    89   45   49 1    
    90   45  107 1    
    91   46   47 1    
    92   46  108 1    
    93   46  109 1    
    94   47   48 1    
    95   48  110 1    
    96   48  111 1    
    97   49   50 am   BACKBONE|DICT|INTERRES
    98   49  112 1    
    99   50   51 2    
   100   50   52 1    
   101   52   53 1    
   102   52   54 1    
   103   52  113 1    
   104   53  114 1    
   105   53  115 1    
   106   53  116 1    
   107   54   55 am   BACKBONE|DICT|INTERRES
   108   54  117 1    
   109   55   56 2    
   110   55   57 1    
   111   57   58 1    
   112   57   59 1    
   113   57  118 1    
   114   58  119 1    
   115   58  120 1    
   116   58  121 1    
   117   59   60 am   BACKBONE|DICT|INTERRES
   118   59  122 1    
   119   60   61 2    
   120   60   62 1    
   121   62   63 1    
   122   62   64 1    
   123   62  123 1    
   124   63  124 1    
   125   63  125 1    
   126   63  126 1    
   127   64   65 am   BACKBONE|DICT|INTERRES
   128   64  127 1    
   129   65   66 2    
@<TRIPOS>SUBSTRUCTURE
     1 UNK         1 GROUP             0       ****    0 ROOT    
