@<TRIPOS>MOLECULE
3R135
127   129    1
SMALL
USER_CHARGES


@<TRIPOS>ATOM
      1 CA        -76.4969   25.7316  -71.9023 C.3       0 UNK        -0.1998 
      2 C         -78.0040   25.8339  -72.0782 C.2       0 UNK         0.4909 
      3 O         -78.4638   26.5328  -72.9758 O.2       0 UNK        -0.5240 
      4 N         -78.7714   25.1360  -71.2311 N.am      1 UNK        -0.4739 
      5 CA        -80.2414   25.1139  -71.2178 C.3       1 UNK         0.0864 
      6 C6        -80.8891   26.4996  -70.9201 C.3       11 UNK        -0.0881 
      7 S7        -80.1923   27.3290  -69.4503 S.3       11 UNK        -0.2682 
      8 C8        -80.3370   29.0837  -69.9200 C.3       11 UNK         0.0289 
      9 C9        -79.3602   29.4923  -71.0174 C.ar      11 UNK        -0.0687 
     10 C10       -79.8013   29.6522  -72.3355 C.ar      11 UNK        -0.0823 
     11 C11       -78.9261   30.0864  -73.3367 C.ar      11 UNK        -0.0830 
     12 C12       -77.5980   30.3776  -73.0023 C.ar      11 UNK        -0.1021 
     13 C13       -77.1433   30.2224  -71.6890 C.ar      11 UNK        -0.0753 
     14 C14       -78.0265   29.7694  -70.7035 C.ar      11 UNK        -0.0933 
     15 C15       -75.7178   30.6048  -71.3204 C.3       11 UNK         0.0166 
     16 S16       -74.5153   29.3181  -71.7773 S.3       11 UNK        -0.2615 
     17 C17       -73.0227   29.9792  -70.9596 C.3       11 UNK        -0.0865 
     18 CA        -72.1485   30.8519  -71.8987 C.3       10 UNK         0.0862 
     19 C         -71.0872   31.6444  -71.0774 C.2       10 UNK         0.5551 
     20 N         -69.7937   31.3863  -71.2299 N.am      10 UNK        -0.7319 
     21 O         -71.4490   32.5136  -70.2883 O.2       10 UNK        -0.5018 
     22 N         -71.5993   30.0636  -73.0153 N.am      10 UNK        -0.4509 
     23 C         -71.0899   30.5780  -74.1436 C.2       10 UNK         0.4899 
     24 O         -71.0829   31.7812  -74.4049 O.2       10 UNK        -0.4839 
     25 CA        -70.4557   29.5944  -75.1451 C.3       9 UNK         0.0222 
     26 CB        -68.9216   29.6535  -75.0520 C.3       9 UNK        -0.1966 
     27 N         -70.8943   28.2092  -74.9485 N.am      9 UNK        -0.4218 
     28 C         -72.0543   27.7156  -75.3989 C.2       9 UNK         0.5020 
     29 O         -72.8670   28.3620  -76.0624 O.2       9 UNK        -0.5274 
     30 CA        -72.3740   26.2683  -74.9954 C.3       8 UNK         0.0270 
     31 CB        -73.3171   26.2476  -73.7811 C.3       8 UNK        -0.1976 
     32 N         -72.9900   25.5201  -76.0900 N.am      8 UNK        -0.4313 
     33 C         -72.3487   25.1012  -77.1885 C.2       8 UNK         0.5041 
     34 O         -71.1523   25.3043  -77.4017 O.2       8 UNK        -0.5577 
     35 CA        -73.1663   24.2987  -78.2109 C.3       7 UNK         0.0284 
     36 CB        -73.3817   22.8577  -77.7165 C.3       7 UNK        -0.1958 
     37 N         -74.4669   24.9165  -78.4732 N.am      7 UNK        -0.4454 
     38 C         -74.7745   25.6149  -79.5750 C.2       7 UNK         0.5089 
     39 O         -73.9793   25.8340  -80.4897 O.2       7 UNK        -0.5125 
     40 CA        -76.2180   26.1410  -79.7080 C.3       6 UNK         0.0408 
     41 CB        -77.0213   25.2543  -80.6727 C.3       6 UNK        -0.1791 
     42 N         -76.9302   26.2223  -78.4308 N.am      6 UNK        -0.4762 
     43 C         -76.7020   27.1602  -77.4971 C.2       6 UNK         0.5007 
     44 O         -75.9111   28.0884  -77.6617 O.2       6 UNK        -0.5032 
     45 CA        -77.4467   27.0151  -76.1460 C.3       5 UNK         0.0783 
     46 C46       -78.7193   27.9015  -76.0902 C.3       11 UNK        -0.0857 
     47 S47       -78.3597   29.6931  -76.0707 S.3       11 UNK        -0.2512 
     48 C48       -79.4535   30.3171  -74.7509 C.3       11 UNK         0.0225 
     49 N         -77.7658   25.6137  -75.8359 N.am      5 UNK        -0.4615 
     50 C         -76.8630   24.6315  -75.6884 C.2       4 UNK         0.5053 
     51 O         -75.6494   24.8203  -75.7469 O.2       4 UNK        -0.5105 
     52 CA        -77.3655   23.1863  -75.5186 C.3       4 UNK         0.0263 
     53 CB        -77.1296   22.6803  -74.0880 C.3       4 UNK        -0.1981 
     54 N         -78.7684   22.9965  -75.8937 N.am      4 UNK        -0.4224 
     55 C         -79.2379   23.1224  -77.1449 C.2       3 UNK         0.4895 
     56 O         -78.5234   23.3798  -78.1147 O.2       3 UNK        -0.5091 
     57 CA        -80.7559   22.9794  -77.3564 C.3       3 UNK         0.0250 
     58 CB        -81.0922   21.5745  -77.8817 C.3       3 UNK        -0.1996 
     59 N         -81.5682   23.2560  -76.1665 N.am      3 UNK        -0.4254 
     60 C         -81.6076   24.4204  -75.5027 C.2       2 UNK         0.5004 
     61 O         -80.9259   25.4005  -75.8091 O.2       2 UNK        -0.5226 
     62 CA        -82.5562   24.5152  -74.2904 C.3       2 UNK         0.0269 
     63 CB        -83.3414   23.2174  -73.9858 C.3       2 UNK        -0.1926 
     64 N         -81.8607   24.9873  -73.0872 N.am      2 UNK        -0.4687 
     65 C         -80.8012   24.4210  -72.4861 C.2       1 UNK         0.5165 
     66 O         -80.2824   23.3717  -72.8771 O.2       1 UNK        -0.5079 
     67 H67       -76.2235   25.0849  -71.0691 H         1 UNK         0.0900 
     68 H68       -76.0789   26.7204  -71.7175 H         1 UNK         0.0900 
     69 H69       -76.0411   25.3336  -72.8075 H         1 UNK         0.0900 
     70 H70       -78.3310   24.5561  -70.5314 H         1 UNK         0.2959 
     71 H71       -80.5139   24.4526  -70.3939 H         1 UNK         0.1079 
     72 H72       -81.9619   26.3930  -70.7496 H         1 UNK         0.0837 
     73 H73       -80.7768   27.1547  -71.7834 H         1 UNK         0.0837 
     74 H74       -81.3648   29.2908  -70.2223 H         1 UNK         0.0685 
     75 H75       -80.1560   29.6953  -69.0349 H         1 UNK         0.0685 
     76 H76       -80.8362   29.4554  -72.5787 H         1 UNK         0.1434 
     77 H77       -76.9185   30.7412  -73.7610 H         1 UNK         0.1329 
     78 H78       -77.6849   29.6578  -69.6835 H         1 UNK         0.1335 
     79 H79       -75.4480   31.5385  -71.8163 H         1 UNK         0.0680 
     80 H80       -75.6541   30.7980  -70.2484 H         1 UNK         0.0680 
     81 H81       -72.4407   29.1392  -70.5764 H         1 UNK         0.1032 
     82 H82       -73.3308   30.5436  -70.0772 H         1 UNK         0.1032 
     83 H83       -72.8003   31.6110  -72.3359 H         1 UNK         0.0461 
     84 H84       -69.1190   31.9095  -70.6941 H         1 UNK         0.3453 
     85 H85       -69.4866   30.6766  -71.8743 H         1 UNK         0.3453 
     86 H86       -71.5774   29.0643  -72.8860 H         1 UNK         0.2984 
     87 H87       -70.7441   29.9167  -76.1481 H         1 UNK         0.0554 
     88 H88       -68.4540   29.0199  -75.8060 H         1 UNK         0.0847 
     89 H89       -68.5598   29.3347  -74.0739 H         1 UNK         0.0847 
     90 H90       -68.5591   30.6692  -75.2176 H         1 UNK         0.0847 
     91 H91       -70.2779   27.6063  -74.4216 H         1 UNK         0.3141 
     92 H92       -71.4472   25.7596  -74.7211 H         1 UNK         0.0743 
     93 H93       -73.5446   25.2272  -73.4722 H         1 UNK         0.0784 
     94 H94       -72.8697   26.7536  -72.9249 H         1 UNK         0.0784 
     95 H95       -74.2610   26.7502  -73.9990 H         1 UNK         0.0784 
     96 H96       -73.9824   25.3104  -75.9875 H         1 UNK         0.3213 
     97 H97       -72.5817   24.2476  -79.1322 H         1 UNK         0.0855 
     98 H98       -72.4276   22.3674  -77.5183 H         1 UNK         0.0814 
     99 H99       -73.9043   22.2586  -78.4623 H         1 UNK         0.0814 
    100 H100      -73.9630   22.8241  -76.7942 H         1 UNK         0.0814 
    101 H101      -75.1606   24.8415  -77.7390 H         1 UNK         0.3105 
    102 H102      -76.1646   27.1437  -80.1373 H         1 UNK         0.0547 
    103 H103      -76.5468   25.2159  -81.6542 H         1 UNK         0.0837 
    104 H104      -77.0984   24.2288  -80.3091 H         1 UNK         0.0837 
    105 H105      -78.0319   25.6361  -80.8173 H         1 UNK         0.0837 
    106 H106      -77.5801   25.4727  -78.2233 H         1 UNK         0.3020 
    107 H107      -76.7629   27.3568  -75.3651 H         1 UNK         0.1245 
    108 H108      -79.2914   27.6619  -75.1928 H         1 UNK         0.0781 
    109 H109      -79.3824   27.6826  -76.9292 H         1 UNK         0.0781 
    110 H110      -80.4432   29.8752  -74.8771 H         1 UNK         0.0836 
    111 H111      -79.5806   31.3911  -74.8920 H         1 UNK         0.0836 
    112 H112      -78.7518   25.3939  -75.7487 H         1 UNK         0.3022 
    113 H113      -76.7636   22.5685  -76.1886 H         1 UNK         0.0747 
    114 H114      -77.3882   21.6258  -73.9927 H         1 UNK         0.0793 
    115 H115      -76.0812   22.7833  -73.8044 H         1 UNK         0.0793 
    116 H116      -77.7194   23.2350  -73.3609 H         1 UNK         0.0793 
    117 H117      -79.4235   22.8275  -75.1409 H         1 UNK         0.3047 
    118 H118      -81.0397   23.7069  -78.1198 H         1 UNK         0.0822 
    119 H119      -82.1483   21.4874  -78.1379 H         1 UNK         0.0807 
    120 H120      -80.8580   20.8021  -77.1480 H         1 UNK         0.0807 
    121 H121      -80.5232   21.3487  -78.7850 H         1 UNK         0.0807 
    122 H122      -82.1502   22.5011  -75.8333 H         1 UNK         0.2946 
    123 H123      -83.2844   25.2857  -74.5493 H         1 UNK         0.1144 
    124 H124      -83.9574   22.9163  -74.8343 H         1 UNK         0.0793 
    125 H125      -84.0186   23.3621  -73.1439 H         1 UNK         0.0793 
    126 H126      -82.6840   22.3839  -73.7351 H         1 UNK         0.0793 
    127 H127      -82.1945   25.8661  -72.7186 H         1 UNK         0.2896 
@<TRIPOS>BOND
     1    1    2 1    
     2    1   67 1    
     3    1   68 1    
     4    1   69 1    
     5    2    3 2    
     6    2    4 am   BACKBONE|DICT|INTERRES
     7    4    5 1    
     8    4   70 1    
     9    5    6 1    
    10    5   65 1    
    11    5   71 1    
    12    6    7 1    
    13    6   72 1    
    14    6   73 1    
    15    7    8 1    
    16    8    9 1    
    17    8   74 1    
    18    8   75 1    
    19    9   10 ar   
    20    9   14 ar   
    21   10   11 ar   
    22   10   76 1    
    23   11   12 ar   
    24   11   48 1    
    25   12   13 ar   
    26   12   77 1    
    27   13   14 ar   
    28   13   15 1    
    29   14   78 1    
    30   15   16 1    
    31   15   79 1    
    32   15   80 1    
    33   16   17 1    
    34   17   18 1    
    35   17   81 1    
    36   17   82 1    
    37   18   19 1    
    38   18   22 1    
    39   18   83 1    
    40   19   20 am   BACKBONE|DICT|INTERRES
    41   19   21 2    
    42   20   84 1    
    43   20   85 1    
    44   22   23 am   BACKBONE|DICT|INTERRES
    45   22   86 1    
    46   23   24 2    
    47   23   25 1    
    48   25   26 1    
    49   25   27 1    
    50   25   87 1    
    51   26   88 1    
    52   26   89 1    
    53   26   90 1    
    54   27   28 am   BACKBONE|DICT|INTERRES
    55   27   91 1    
    56   28   29 2    
    57   28   30 1    
    58   30   31 1    
    59   30   32 1    
    60   30   92 1    
    61   31   93 1    
    62   31   94 1    
    63   31   95 1    
    64   32   33 am   BACKBONE|DICT|INTERRES
    65   32   96 1    
    66   33   34 2    
    67   33   35 1    
    68   35   36 1    
    69   35   37 1    
    70   35   97 1    
    71   36   98 1    
    72   36   99 1    
    73   36  100 1    
    74   37   38 am   BACKBONE|DICT|INTERRES
    75   37  101 1    
    76   38   39 2    
    77   38   40 1    
    78   40   41 1    
    79   40   42 1    
    80   40  102 1    
    81   41  103 1    
    82   41  104 1    
    83   41  105 1    
    84   42   43 am   BACKBONE|DICT|INTERRES
    85   42  106 1    
    86   43   44 2    
    87   43   45 1    
    88   45   46 1    
    89   45   49 1    
    90   45  107 1    
    91   46   47 1    
    92   46  108 1    
    93   46  109 1    
    94   47   48 1    
    95   48  110 1    
    96   48  111 1    
    97   49   50 am   BACKBONE|DICT|INTERRES
    98   49  112 1    
    99   50   51 2    
   100   50   52 1    
   101   52   53 1    
   102   52   54 1    
   103   52  113 1    
   104   53  114 1    
   105   53  115 1    
   106   53  116 1    
   107   54   55 am   BACKBONE|DICT|INTERRES
   108   54  117 1    
   109   55   56 2    
   110   55   57 1    
   111   57   58 1    
   112   57   59 1    
   113   57  118 1    
   114   58  119 1    
   115   58  120 1    
   116   58  121 1    
   117   59   60 am   BACKBONE|DICT|INTERRES
   118   59  122 1    
   119   60   61 2    
   120   60   62 1    
   121   62   63 1    
   122   62   64 1    
   123   62  123 1    
   124   63  124 1    
   125   63  125 1    
   126   63  126 1    
   127   64   65 am   BACKBONE|DICT|INTERRES
   128   64  127 1    
   129   65   66 2    
@<TRIPOS>SUBSTRUCTURE
     1 UNK         1 GROUP             0       ****    0 ROOT    
