@<TRIPOS>MOLECULE
3R135
127   129    1
SMALL
USER_CHARGES


@<TRIPOS>ATOM
      1 CA        -84.0996   28.9562  -74.5000 C.3       0 UNK        -0.1998 
      2 C         -83.3001   28.7742  -73.2123 C.2       0 UNK         0.4909 
      3 O         -83.8959   28.7037  -72.1394 O.2       0 UNK        -0.5240 
      4 N         -81.9614   28.7012  -73.2500 N.am      1 UNK        -0.4739 
      5 CA        -81.0952   28.7180  -74.4376 C.3       1 UNK         0.0864 
      6 C6        -79.6068   28.9275  -74.0580 C.3       11 UNK        -0.0881 
      7 S7        -79.2691   30.5915  -73.3767 S.3       11 UNK        -0.2682 
      8 C8        -79.4585   30.3915  -71.5712 C.3       11 UNK         0.0289 
      9 C9        -78.4704   29.3939  -70.9854 C.ar      11 UNK        -0.0687 
     10 C10       -78.8850   28.0941  -70.6836 C.ar      11 UNK        -0.0823 
     11 C11       -77.9732   27.1532  -70.2002 C.ar      11 UNK        -0.0830 
     12 C12       -76.6467   27.5318  -69.9736 C.ar      11 UNK        -0.1021 
     13 C13       -76.2181   28.8265  -70.2785 C.ar      11 UNK        -0.0753 
     14 C14       -77.1381   29.7594  -70.7689 C.ar      11 UNK        -0.0933 
     15 C15       -74.7491   29.1901  -70.1283 C.3       11 UNK         0.0166 
     16 S16       -73.8640   28.9902  -71.7098 S.3       11 UNK        -0.2615 
     17 C17       -74.2476   30.5783  -72.5327 C.3       11 UNK        -0.0865 
     18 CA        -73.1123   31.1220  -73.4391 C.3       10 UNK         0.0862 
     19 C         -71.7872   31.3892  -72.6608 C.2       10 UNK         0.5551 
     20 N         -70.6789   30.7281  -72.9792 N.am      10 UNK        -0.7319 
     21 O         -71.7659   32.2247  -71.7602 O.2       10 UNK        -0.5018 
     22 N         -72.9621   30.3168  -74.6598 N.am      10 UNK        -0.4509 
     23 C         -72.3824   30.7567  -75.7852 C.2       10 UNK         0.4899 
     24 O         -72.0176   31.9224  -75.9488 O.2       10 UNK        -0.4839 
     25 CA        -72.1779   29.7338  -76.9211 C.3       9 UNK         0.0222 
     26 CB        -70.9655   30.0784  -77.8119 C.3       9 UNK        -0.1966 
     27 N         -72.1021   28.3363  -76.4755 N.am      9 UNK        -0.4218 
     28 C         -71.2183   27.7939  -75.6202 C.2       9 UNK         0.5020 
     29 O         -70.3524   28.4472  -75.0348 O.2       9 UNK        -0.5274 
     30 CA        -71.3206   26.2807  -75.3425 C.3       8 UNK         0.0270 
     31 CB        -71.5620   26.0175  -73.8453 C.3       8 UNK        -0.1976 
     32 N         -72.3763   25.6294  -76.1262 N.am      8 UNK        -0.4313 
     33 C         -72.2104   25.1339  -77.3628 C.2       8 UNK         0.5041 
     34 O         -71.1219   25.1007  -77.9380 O.2       8 UNK        -0.5577 
     35 CA        -73.4561   24.6056  -78.1063 C.3       7 UNK         0.0284 
     36 CB        -73.5383   23.0753  -77.9877 C.3       7 UNK        -0.1958 
     37 N         -74.7260   25.1876  -77.6617 N.am      7 UNK        -0.4454 
     38 C         -75.0371   26.4917  -77.6829 C.2       7 UNK         0.5089 
     39 O         -74.3087   27.3595  -78.1625 O.2       7 UNK        -0.5125 
     40 CA        -76.3353   26.9103  -76.9694 C.3       6 UNK         0.0408 
     41 CB        -77.5125   26.9335  -77.9539 C.3       6 UNK        -0.1791 
     42 N         -76.6681   26.0587  -75.8221 N.am      6 UNK        -0.4762 
     43 C         -75.8830   25.8569  -74.7532 C.2       6 UNK         0.5007 
     44 O         -74.7799   26.3847  -74.6172 O.2       6 UNK        -0.5032 
     45 CA        -76.3796   24.8637  -73.6893 C.3       5 UNK         0.0783 
     46 C46       -77.3736   25.5346  -72.7172 C.3       11 UNK        -0.0857 
     47 S47       -77.5325   24.5683  -71.1714 S.3       11 UNK        -0.2512 
     48 C48       -78.4004   25.7026  -70.0275 C.3       11 UNK         0.0225 
     49 N         -76.9603   23.6857  -74.3313 N.am      5 UNK        -0.4615 
     50 C         -76.2692   22.6040  -74.7064 C.2       4 UNK         0.5053 
     51 O         -75.0671   22.4507  -74.4913 O.2       4 UNK        -0.5105 
     52 CA        -77.0452   21.5054  -75.4564 C.3       4 UNK         0.0263 
     53 CB        -77.5443   20.4364  -74.4712 C.3       4 UNK        -0.1981 
     54 N         -78.1803   22.0131  -76.2340 N.am      4 UNK        -0.4224 
     55 C         -78.0697   22.8073  -77.3079 C.2       3 UNK         0.4895 
     56 O         -76.9947   23.1921  -77.7691 O.2       3 UNK        -0.5091 
     57 CA        -79.3827   23.2894  -77.9518 C.3       3 UNK         0.0250 
     58 CB        -79.9304   22.2210  -78.9118 C.3       3 UNK        -0.1996 
     59 N         -80.4405   23.6922  -77.0117 N.am      3 UNK        -0.4254 
     60 C         -80.3016   24.5548  -75.9943 C.2       2 UNK         0.5004 
     61 O         -79.2184   25.0020  -75.6163 O.2       2 UNK        -0.5226 
     62 CA        -81.5823   24.9646  -75.2465 C.3       2 UNK         0.0269 
     63 CB        -81.9029   23.9380  -74.1482 C.3       2 UNK        -0.1926 
     64 N         -81.4671   26.2920  -74.6296 N.am      2 UNK        -0.4687 
     65 C         -81.2564   27.4416  -75.2906 C.2       1 UNK         0.5165 
     66 O         -81.2210   27.5302  -76.5183 O.2       1 UNK        -0.5079 
     67 H67       -83.6793   29.7396  -75.1288 H         1 UNK         0.0900 
     68 H68       -85.1260   29.2417  -74.2701 H         1 UNK         0.0900 
     69 H69       -84.1347   28.0267  -75.0672 H         1 UNK         0.0900 
     70 H70       -81.4757   28.6083  -72.3719 H         1 UNK         0.2959 
     71 H71       -81.3923   29.5590  -75.0670 H         1 UNK         0.1079 
     72 H72       -79.2605   28.1537  -73.3735 H         1 UNK         0.0837 
     73 H73       -78.9767   28.8278  -74.9448 H         1 UNK         0.0837 
     74 H74       -79.3078   31.3631  -71.0984 H         1 UNK         0.0685 
     75 H75       -80.4842   30.1048  -71.3381 H         1 UNK         0.0685 
     76 H76       -79.9090   27.8010  -70.8674 H         1 UNK         0.1434 
     77 H77       -75.9343   26.7968  -69.6239 H         1 UNK         0.1329 
     78 H78       -76.8125   30.7602  -71.0159 H         1 UNK         0.1335 
     79 H79       -74.6411   30.2081  -69.7514 H         1 UNK         0.0680 
     80 H80       -74.2801   28.5436  -69.3849 H         1 UNK         0.0680 
     81 H81       -74.4861   31.3285  -71.7772 H         1 UNK         0.1032 
     82 H82       -75.1621   30.4516  -73.1146 H         1 UNK         0.1032 
     83 H83       -73.4454   32.1087  -73.7674 H         1 UNK         0.0461 
     84 H84       -69.8300   30.9155  -72.4707 H         1 UNK         0.3453 
     85 H85       -70.6831   30.0290  -73.7134 H         1 UNK         0.3453 
     86 H86       -73.2174   29.3426  -74.5864 H         1 UNK         0.2984 
     87 H87       -73.0711   29.8003  -77.5436 H         1 UNK         0.0554 
     88 H88       -70.8510   29.3578  -78.6217 H         1 UNK         0.0847 
     89 H89       -70.0364   30.0924  -77.2411 H         1 UNK         0.0847 
     90 H90       -71.0798   31.0611  -78.2710 H         1 UNK         0.0847 
     91 H91       -72.7882   27.7248  -76.9070 H         1 UNK         0.3141 
     92 H92       -70.3564   25.8404  -75.6049 H         1 UNK         0.0743 
     93 H93       -72.4538   26.5269  -73.4795 H         1 UNK         0.0784 
     94 H94       -71.6736   24.9528  -73.6397 H         1 UNK         0.0784 
     95 H95       -70.7226   26.3757  -73.2479 H         1 UNK         0.0784 
     96 H96       -73.3081   25.6585  -75.7209 H         1 UNK         0.3213 
     97 H97       -73.3339   24.8619  -79.1607 H         1 UNK         0.0855 
     98 H98       -73.6990   22.7598  -76.9560 H         1 UNK         0.0814 
     99 H99       -72.6167   22.6051  -78.3337 H         1 UNK         0.0814 
    100 H100      -74.3520   22.6730  -78.5915 H         1 UNK         0.0814 
    101 H101      -75.4272   24.5403  -77.3169 H         1 UNK         0.3105 
    102 H102      -76.1904   27.9228  -76.5872 H         1 UNK         0.0547 
    103 H103      -77.3278   27.6399  -78.7641 H         1 UNK         0.0837 
    104 H104      -77.6730   25.9558  -78.4065 H         1 UNK         0.0837 
    105 H105      -78.4391   27.2346  -77.4641 H         1 UNK         0.0837 
    106 H106      -77.5838   25.6086  -75.8365 H         1 UNK         0.3020 
    107 H107      -75.4976   24.5638  -73.1175 H         1 UNK         0.1245 
    108 H108      -78.3586   25.6605  -73.1693 H         1 UNK         0.0781 
    109 H109      -77.0156   26.5367  -72.4821 H         1 UNK         0.0781 
    110 H110      -78.2096   25.3885  -69.0005 H         1 UNK         0.0836 
    111 H111      -79.4748   25.5952  -70.1846 H         1 UNK         0.0836 
    112 H112      -77.9305   23.7711  -74.6098 H         1 UNK         0.3022 
    113 H113      -76.3488   21.0322  -76.1521 H         1 UNK         0.0747 
    114 H114      -78.0240   19.6078  -74.9926 H         1 UNK         0.0793 
    115 H115      -76.7161   20.0191  -73.8965 H         1 UNK         0.0793 
    116 H116      -78.2608   20.8469  -73.7583 H         1 UNK         0.0793 
    117 H117      -79.1049   21.7569  -75.9195 H         1 UNK         0.3047 
    118 H118      -79.1411   24.1721  -78.5453 H         1 UNK         0.0822 
    119 H119      -80.7792   22.5970  -79.4833 H         1 UNK         0.0807 
    120 H120      -80.2535   21.3253  -78.3798 H         1 UNK         0.0807 
    121 H121      -79.1696   21.9155  -79.6320 H         1 UNK         0.0807 
    122 H122      -81.3680   23.3533  -77.2245 H         1 UNK         0.2946 
    123 H123      -82.4067   24.9978  -75.9623 H         1 UNK         0.1144 
    124 H124      -81.1048   23.8794  -73.4064 H         1 UNK         0.0793 
    125 H125      -82.0321   22.9391  -74.5671 H         1 UNK         0.0793 
    126 H126      -82.8273   24.1890  -73.6274 H         1 UNK         0.0793 
    127 H127      -81.4883   26.3225  -73.6213 H         1 UNK         0.2896 
@<TRIPOS>BOND
     1    1    2 1    
     2    1   67 1    
     3    1   68 1    
     4    1   69 1    
     5    2    3 2    
     6    2    4 am   BACKBONE|DICT|INTERRES
     7    4    5 1    
     8    4   70 1    
     9    5    6 1    
    10    5   65 1    
    11    5   71 1    
    12    6    7 1    
    13    6   72 1    
    14    6   73 1    
    15    7    8 1    
    16    8    9 1    
    17    8   74 1    
    18    8   75 1    
    19    9   10 ar   
    20    9   14 ar   
    21   10   11 ar   
    22   10   76 1    
    23   11   12 ar   
    24   11   48 1    
    25   12   13 ar   
    26   12   77 1    
    27   13   14 ar   
    28   13   15 1    
    29   14   78 1    
    30   15   16 1    
    31   15   79 1    
    32   15   80 1    
    33   16   17 1    
    34   17   18 1    
    35   17   81 1    
    36   17   82 1    
    37   18   19 1    
    38   18   22 1    
    39   18   83 1    
    40   19   20 am   BACKBONE|DICT|INTERRES
    41   19   21 2    
    42   20   84 1    
    43   20   85 1    
    44   22   23 am   BACKBONE|DICT|INTERRES
    45   22   86 1    
    46   23   24 2    
    47   23   25 1    
    48   25   26 1    
    49   25   27 1    
    50   25   87 1    
    51   26   88 1    
    52   26   89 1    
    53   26   90 1    
    54   27   28 am   BACKBONE|DICT|INTERRES
    55   27   91 1    
    56   28   29 2    
    57   28   30 1    
    58   30   31 1    
    59   30   32 1    
    60   30   92 1    
    61   31   93 1    
    62   31   94 1    
    63   31   95 1    
    64   32   33 am   BACKBONE|DICT|INTERRES
    65   32   96 1    
    66   33   34 2    
    67   33   35 1    
    68   35   36 1    
    69   35   37 1    
    70   35   97 1    
    71   36   98 1    
    72   36   99 1    
    73   36  100 1    
    74   37   38 am   BACKBONE|DICT|INTERRES
    75   37  101 1    
    76   38   39 2    
    77   38   40 1    
    78   40   41 1    
    79   40   42 1    
    80   40  102 1    
    81   41  103 1    
    82   41  104 1    
    83   41  105 1    
    84   42   43 am   BACKBONE|DICT|INTERRES
    85   42  106 1    
    86   43   44 2    
    87   43   45 1    
    88   45   46 1    
    89   45   49 1    
    90   45  107 1    
    91   46   47 1    
    92   46  108 1    
    93   46  109 1    
    94   47   48 1    
    95   48  110 1    
    96   48  111 1    
    97   49   50 am   BACKBONE|DICT|INTERRES
    98   49  112 1    
    99   50   51 2    
   100   50   52 1    
   101   52   53 1    
   102   52   54 1    
   103   52  113 1    
   104   53  114 1    
   105   53  115 1    
   106   53  116 1    
   107   54   55 am   BACKBONE|DICT|INTERRES
   108   54  117 1    
   109   55   56 2    
   110   55   57 1    
   111   57   58 1    
   112   57   59 1    
   113   57  118 1    
   114   58  119 1    
   115   58  120 1    
   116   58  121 1    
   117   59   60 am   BACKBONE|DICT|INTERRES
   118   59  122 1    
   119   60   61 2    
   120   60   62 1    
   121   62   63 1    
   122   62   64 1    
   123   62  123 1    
   124   63  124 1    
   125   63  125 1    
   126   63  126 1    
   127   64   65 am   BACKBONE|DICT|INTERRES
   128   64  127 1    
   129   65   66 2    
@<TRIPOS>SUBSTRUCTURE
     1 UNK         1 GROUP             0       ****    0 ROOT    
