@<TRIPOS>MOLECULE
3R135
127   129    1
SMALL
USER_CHARGES


@<TRIPOS>ATOM
      1 CA        -81.0897   29.2352  -77.0169 C.3       0 UNK        -0.1998 
      2 C         -81.7771   28.6005  -75.8108 C.2       0 UNK         0.4909 
      3 O         -82.8894   28.0963  -75.9488 O.2       0 UNK        -0.5240 
      4 N         -81.1768   28.6097  -74.6133 N.am      1 UNK        -0.4739 
      5 CA        -79.8170   29.0537  -74.2905 C.3       1 UNK         0.0864 
      6 C6        -79.6503   29.3506  -72.7758 C.3       11 UNK        -0.0881 
      7 S7        -80.3434   28.0785  -71.6609 S.3       11 UNK        -0.2682 
      8 C8        -79.5793   28.5460  -70.0759 C.3       11 UNK         0.0289 
      9 C9        -78.0947   28.2110  -70.0289 C.ar      11 UNK        -0.0687 
     10 C10       -77.6774   26.8810  -70.1273 C.ar      11 UNK        -0.0823 
     11 C11       -76.3204   26.5545  -70.0649 C.ar      11 UNK        -0.0830 
     12 C12       -75.3760   27.5706  -69.8910 C.ar      11 UNK        -0.1021 
     13 C13       -75.7797   28.9051  -69.7837 C.ar      11 UNK        -0.0753 
     14 C14       -77.1414   29.2197  -69.8557 C.ar      11 UNK        -0.0933 
     15 C15       -74.7436   29.9956  -69.5450 C.3       11 UNK         0.0166 
     16 S16       -73.8954   30.5024  -71.0756 S.3       11 UNK        -0.2615 
     17 C17       -75.1971   31.4471  -71.9398 C.3       11 UNK        -0.0865 
     18 CA        -75.5969   30.8235  -73.3094 C.3       10 UNK         0.0862 
     19 C         -76.8520   31.4710  -73.9663 C.2       10 UNK         0.5551 
     20 N         -77.6780   32.2067  -73.2341 N.am      10 UNK        -0.7319 
     21 O         -77.1258   31.2599  -75.1464 O.2       10 UNK        -0.5018 
     22 N         -74.4791   30.8604  -74.2622 N.am      10 UNK        -0.4509 
     23 C         -73.7263   29.8277  -74.6525 C.2       10 UNK         0.4899 
     24 O         -73.8523   28.6683  -74.2524 O.2       10 UNK        -0.4839 
     25 CA        -72.6336   30.1694  -75.6722 C.3       9 UNK         0.0222 
     26 CB        -71.4722   30.9315  -75.0053 C.3       9 UNK        -0.1966 
     27 N         -72.1249   28.9472  -76.2898 N.am      9 UNK        -0.4218 
     28 C         -71.6107   28.8602  -77.5232 C.2       9 UNK         0.5020 
     29 O         -71.5368   29.8179  -78.2951 O.2       9 UNK        -0.5274 
     30 CA        -71.0518   27.4984  -77.9827 C.3       8 UNK         0.0270 
     31 CB        -69.5220   27.5702  -78.1335 C.3       8 UNK        -0.1976 
     32 N         -71.3834   26.3833  -77.0908 N.am      8 UNK        -0.4313 
     33 C         -72.5632   25.7528  -77.0702 C.2       8 UNK         0.5041 
     34 O         -73.5059   26.0427  -77.8091 O.2       8 UNK        -0.5577 
     35 CA        -72.7005   24.6202  -76.0452 C.3       7 UNK         0.0284 
     36 CB        -72.6766   25.1680  -74.6068 C.3       7 UNK        -0.1958 
     37 N         -73.9609   23.9133  -76.2513 N.am      7 UNK        -0.4454 
     38 C         -74.1198   22.5857  -76.2854 C.2       7 UNK         0.5089 
     39 O         -73.1968   21.7744  -76.1881 O.2       7 UNK        -0.5125 
     40 CA        -75.5768   22.1032  -76.4095 C.3       6 UNK         0.0408 
     41 CB        -75.7345   20.5690  -76.3507 C.3       6 UNK        -0.1791 
     42 N         -76.4214   22.7806  -75.4204 N.am      6 UNK        -0.4762 
     43 C         -76.3571   22.6877  -74.0820 C.2       6 UNK         0.5007 
     44 O         -75.6901   21.8469  -73.4779 O.2       6 UNK        -0.5032 
     45 CA        -77.1820   23.7213  -73.2815 C.3       5 UNK         0.0783 
     46 C46       -76.3539   24.9933  -72.9660 C.3       11 UNK        -0.0857 
     47 S47       -75.0338   24.7338  -71.7329 S.3       11 UNK        -0.2512 
     48 C48       -75.8804   25.1009  -70.1637 C.3       11 UNK         0.0225 
     49 N         -78.4202   24.0916  -73.9696 N.am      5 UNK        -0.4615 
     50 C         -79.4541   23.2798  -74.2239 C.2       4 UNK         0.5053 
     51 O         -79.5368   22.1204  -73.8189 O.2       4 UNK        -0.5105 
     52 CA        -80.5697   23.8608  -75.1062 C.3       4 UNK         0.0263 
     53 CB        -81.5702   24.6681  -74.2620 C.3       4 UNK        -0.1981 
     54 N         -80.0171   24.7121  -76.1641 N.am      4 UNK        -0.4224 
     55 C         -79.5104   24.2528  -77.3174 C.2       3 UNK         0.4895 
     56 O         -79.5208   23.0655  -77.6425 O.2       3 UNK        -0.5091 
     57 CA        -78.8848   25.2809  -78.2788 C.3       3 UNK         0.0250 
     58 CB        -79.9387   25.7859  -79.2777 C.3       3 UNK        -0.1996 
     59 N         -78.2703   26.4298  -77.6089 N.am      3 UNK        -0.4254 
     60 C         -77.1608   26.3799  -76.8586 C.2       2 UNK         0.5004 
     61 O         -76.5221   25.3510  -76.6437 O.2       2 UNK        -0.5226 
     62 CA        -76.7231   27.6977  -76.1936 C.3       2 UNK         0.0269 
     63 CB        -75.9904   28.5808  -77.2180 C.3       2 UNK        -0.1926 
     64 N         -77.8131   28.4818  -75.5944 N.am      2 UNK        -0.4687 
     65 C         -78.7888   28.0232  -74.7970 C.2       1 UNK         0.5165 
     66 O         -78.9185   26.8383  -74.4899 O.2       1 UNK        -0.5079 
     67 H67       -80.7849   30.2595  -76.8051 H         1 UNK         0.0900 
     68 H68       -80.2175   28.6609  -77.3204 H         1 UNK         0.0900 
     69 H69       -81.7721   29.2692  -77.8661 H         1 UNK         0.0900 
     70 H70       -81.6513   28.1703  -73.8366 H         1 UNK         0.2959 
     71 H71       -79.6347   29.9948  -74.8122 H         1 UNK         0.1079 
     72 H72       -80.1467   30.2931  -72.5400 H         1 UNK         0.0837 
     73 H73       -78.5988   29.5042  -72.5285 H         1 UNK         0.0837 
     74 H74       -80.0859   28.0108  -69.2717 H         1 UNK         0.0685 
     75 H75       -79.7506   29.6081  -69.8934 H         1 UNK         0.0685 
     76 H76       -78.4155   26.1011  -70.2574 H         1 UNK         0.1434 
     77 H77       -74.3248   27.3215  -69.8369 H         1 UNK         0.1329 
     78 H78       -77.4614   30.2478  -69.7591 H         1 UNK         0.1335 
     79 H79       -73.9953   29.6306  -68.8399 H         1 UNK         0.0680 
     80 H80       -75.1993   30.8672  -69.0725 H         1 UNK         0.0680 
     81 H81       -76.0592   31.5170  -71.2778 H         1 UNK         0.1032 
     82 H82       -74.8435   32.4704  -72.0783 H         1 UNK         0.1032 
     83 H83       -75.8836   29.7850  -73.1315 H         1 UNK         0.0461 
     84 H84       -77.4937   32.4068  -72.2651 H         1 UNK         0.3453 
     85 H85       -78.4835   32.6168  -73.6796 H         1 UNK         0.3453 
     86 H86       -74.3213   31.7599  -74.6935 H         1 UNK         0.2984 
     87 H87       -73.0862   30.7991  -76.4415 H         1 UNK         0.0554 
     88 H88       -71.8174   31.8564  -74.5418 H         1 UNK         0.0847 
     89 H89       -70.7060   31.2035  -75.7314 H         1 UNK         0.0847 
     90 H90       -70.9973   30.3346  -74.2256 H         1 UNK         0.0847 
     91 H91       -72.2294   28.1124  -75.7282 H         1 UNK         0.3141 
     92 H92       -71.4782   27.2937  -78.9674 H         1 UNK         0.0743 
     93 H93       -69.2335   28.3600  -78.8288 H         1 UNK         0.0784 
     94 H94       -69.0312   27.7798  -77.1822 H         1 UNK         0.0784 
     95 H95       -69.1166   26.6365  -78.5241 H         1 UNK         0.0784 
     96 H96       -70.6572   26.0832  -76.4554 H         1 UNK         0.3213 
     97 H97       -71.8582   23.9398  -76.1879 H         1 UNK         0.0855 
     98 H98       -73.4781   25.8883  -74.4365 H         1 UNK         0.0814 
     99 H99       -71.7343   25.6672  -74.3800 H         1 UNK         0.0814 
    100 H100      -72.7945   24.3644  -73.8794 H         1 UNK         0.0814 
    101 H101      -74.7698   24.5061  -76.4303 H         1 UNK         0.3105 
    102 H102      -75.9312   22.4326  -77.3874 H         1 UNK         0.0547 
    103 H103      -76.7816   20.2758  -76.4234 H         1 UNK         0.0837 
    104 H104      -75.3304   20.1485  -75.4298 H         1 UNK         0.0837 
    105 H105      -75.2057   20.0953  -77.1783 H         1 UNK         0.0837 
    106 H106      -76.9445   23.5667  -75.7924 H         1 UNK         0.3020 
    107 H107      -77.4688   23.2478  -72.3401 H         1 UNK         0.1245 
    108 H108      -77.0086   25.7900  -72.6121 H         1 UNK         0.0781 
    109 H109      -75.8966   25.3875  -73.8751 H         1 UNK         0.0781 
    110 H110      -75.2025   24.8767  -69.3390 H         1 UNK         0.0836 
    111 H111      -76.7302   24.4264  -70.0489 H         1 UNK         0.0836 
    112 H112      -78.4898   25.0589  -74.2777 H         1 UNK         0.3022 
    113 H113      -81.1078   23.0279  -75.5641 H         1 UNK         0.0747 
    114 H114      -82.3692   25.0794  -74.8793 H         1 UNK         0.0793 
    115 H115      -82.0366   24.0367  -73.5048 H         1 UNK         0.0793 
    116 H116      -81.0910   25.4977  -73.7409 H         1 UNK         0.0793 
    117 H117      -79.8948   25.6895  -75.9308 H         1 UNK         0.3047 
    118 H118      -78.1013   24.7661  -78.8396 H         1 UNK         0.0822 
    119 H119      -79.4967   26.4499  -80.0208 H         1 UNK         0.0807 
    120 H120      -80.7444   26.3262  -78.7788 H         1 UNK         0.0807 
    121 H121      -80.3919   24.9542  -79.8193 H         1 UNK         0.0807 
    122 H122      -78.7144   27.3255  -77.7384 H         1 UNK         0.2946 
    123 H123      -76.0271   27.4446  -75.3912 H         1 UNK         0.1144 
    124 H124      -75.1096   28.0752  -77.6132 H         1 UNK         0.0793 
    125 H125      -75.6512   29.5155  -76.7747 H         1 UNK         0.0793 
    126 H126      -76.6282   28.8339  -78.0656 H         1 UNK         0.0793 
    127 H127      -77.7469   29.4854  -75.7374 H         1 UNK         0.2896 
@<TRIPOS>BOND
     1    1    2 1    
     2    1   67 1    
     3    1   68 1    
     4    1   69 1    
     5    2    3 2    
     6    2    4 am   BACKBONE|DICT|INTERRES
     7    4    5 1    
     8    4   70 1    
     9    5    6 1    
    10    5   65 1    
    11    5   71 1    
    12    6    7 1    
    13    6   72 1    
    14    6   73 1    
    15    7    8 1    
    16    8    9 1    
    17    8   74 1    
    18    8   75 1    
    19    9   10 ar   
    20    9   14 ar   
    21   10   11 ar   
    22   10   76 1    
    23   11   12 ar   
    24   11   48 1    
    25   12   13 ar   
    26   12   77 1    
    27   13   14 ar   
    28   13   15 1    
    29   14   78 1    
    30   15   16 1    
    31   15   79 1    
    32   15   80 1    
    33   16   17 1    
    34   17   18 1    
    35   17   81 1    
    36   17   82 1    
    37   18   19 1    
    38   18   22 1    
    39   18   83 1    
    40   19   20 am   BACKBONE|DICT|INTERRES
    41   19   21 2    
    42   20   84 1    
    43   20   85 1    
    44   22   23 am   BACKBONE|DICT|INTERRES
    45   22   86 1    
    46   23   24 2    
    47   23   25 1    
    48   25   26 1    
    49   25   27 1    
    50   25   87 1    
    51   26   88 1    
    52   26   89 1    
    53   26   90 1    
    54   27   28 am   BACKBONE|DICT|INTERRES
    55   27   91 1    
    56   28   29 2    
    57   28   30 1    
    58   30   31 1    
    59   30   32 1    
    60   30   92 1    
    61   31   93 1    
    62   31   94 1    
    63   31   95 1    
    64   32   33 am   BACKBONE|DICT|INTERRES
    65   32   96 1    
    66   33   34 2    
    67   33   35 1    
    68   35   36 1    
    69   35   37 1    
    70   35   97 1    
    71   36   98 1    
    72   36   99 1    
    73   36  100 1    
    74   37   38 am   BACKBONE|DICT|INTERRES
    75   37  101 1    
    76   38   39 2    
    77   38   40 1    
    78   40   41 1    
    79   40   42 1    
    80   40  102 1    
    81   41  103 1    
    82   41  104 1    
    83   41  105 1    
    84   42   43 am   BACKBONE|DICT|INTERRES
    85   42  106 1    
    86   43   44 2    
    87   43   45 1    
    88   45   46 1    
    89   45   49 1    
    90   45  107 1    
    91   46   47 1    
    92   46  108 1    
    93   46  109 1    
    94   47   48 1    
    95   48  110 1    
    96   48  111 1    
    97   49   50 am   BACKBONE|DICT|INTERRES
    98   49  112 1    
    99   50   51 2    
   100   50   52 1    
   101   52   53 1    
   102   52   54 1    
   103   52  113 1    
   104   53  114 1    
   105   53  115 1    
   106   53  116 1    
   107   54   55 am   BACKBONE|DICT|INTERRES
   108   54  117 1    
   109   55   56 2    
   110   55   57 1    
   111   57   58 1    
   112   57   59 1    
   113   57  118 1    
   114   58  119 1    
   115   58  120 1    
   116   58  121 1    
   117   59   60 am   BACKBONE|DICT|INTERRES
   118   59  122 1    
   119   60   61 2    
   120   60   62 1    
   121   62   63 1    
   122   62   64 1    
   123   62  123 1    
   124   63  124 1    
   125   63  125 1    
   126   63  126 1    
   127   64   65 am   BACKBONE|DICT|INTERRES
   128   64  127 1    
   129   65   66 2    
@<TRIPOS>SUBSTRUCTURE
     1 UNK         1 GROUP             0       ****    0 ROOT    
