@<TRIPOS>MOLECULE
3R135
127   129    1
SMALL
USER_CHARGES


@<TRIPOS>ATOM
      1 CA        -79.3058   29.1751  -70.5839 C.3       0 UNK        -0.1998 
      2 C         -80.6446   28.8751  -71.2369 C.2       0 UNK         0.4909 
      3 O         -81.6622   28.8134  -70.5461 O.2       0 UNK        -0.5240 
      4 N         -80.6555   28.6928  -72.5650 N.am      1 UNK        -0.4739 
      5 CA        -81.8657   28.4055  -73.3474 C.3       1 UNK         0.0864 
      6 C6        -81.7180   28.8402  -74.8321 C.3       11 UNK        -0.0881 
      7 S7        -80.7774   27.7069  -75.9155 S.3       11 UNK        -0.2682 
      8 C8        -79.1896   28.5732  -76.1432 C.3       11 UNK         0.0289 
      9 C9        -78.3099   28.5526  -74.8991 C.ar      11 UNK        -0.0687 
     10 C10       -78.0749   27.3559  -74.2155 C.ar      11 UNK        -0.0823 
     11 C11       -77.2481   27.3217  -73.0890 C.ar      11 UNK        -0.0830 
     12 C12       -76.6465   28.5063  -72.6528 C.ar      11 UNK        -0.1021 
     13 C13       -76.8745   29.7123  -73.3238 C.ar      11 UNK        -0.0753 
     14 C14       -77.7064   29.7285  -74.4466 C.ar      11 UNK        -0.0933 
     15 C15       -76.2448   31.0055  -72.8250 C.3       11 UNK         0.0166 
     16 S16       -74.7025   31.3896  -73.7107 S.3       11 UNK        -0.2615 
     17 C17       -73.5880   30.0976  -73.0633 C.3       11 UNK        -0.0865 
     18 CA        -72.1601   30.6255  -72.7727 C.3       10 UNK         0.0862 
     19 C         -71.3163   29.5732  -71.9921 C.2       10 UNK         0.5551 
     20 N         -70.1651   29.1257  -72.4808 N.am      10 UNK        -0.7319 
     21 O         -71.7140   29.1595  -70.9060 O.2       10 UNK        -0.5018 
     22 N         -71.5128   31.1264  -73.9939 N.am      10 UNK        -0.4509 
     23 C         -70.5467   32.0544  -74.0165 C.2       10 UNK         0.4899 
     24 O         -70.1707   32.6692  -73.0169 O.2       10 UNK        -0.4839 
     25 CA        -69.8825   32.3379  -75.3825 C.3       9 UNK         0.0222 
     26 CB        -68.4606   32.9223  -75.2394 C.3       9 UNK        -0.1966 
     27 N         -69.8729   31.1783  -76.2860 N.am      9 UNK        -0.4218 
     28 C         -69.3428   29.9713  -76.0404 C.2       9 UNK         0.5020 
     29 O         -68.7424   29.6694  -75.0062 O.2       9 UNK        -0.5274 
     30 CA        -69.5700   28.8990  -77.1163 C.3       8 UNK         0.0270 
     31 CB        -68.2318   28.3990  -77.6859 C.3       8 UNK        -0.1976 
     32 N         -70.3310   27.7649  -76.5866 N.am      8 UNK        -0.4313 
     33 C         -71.5788   27.8331  -76.1030 C.2       8 UNK         0.5041 
     34 O         -72.2335   28.8767  -76.0280 O.2       8 UNK        -0.5577 
     35 CA        -72.1931   26.5109  -75.6104 C.3       7 UNK         0.0284 
     36 CB        -72.1051   26.3933  -74.0801 C.3       7 UNK        -0.1958 
     37 N         -73.5891   26.3644  -76.0299 N.am      7 UNK        -0.4454 
     38 C         -73.9853   26.2146  -77.3016 C.2       7 UNK         0.5089 
     39 O         -73.2083   26.1523  -78.2566 O.2       7 UNK        -0.5125 
     40 CA        -75.4933   26.0230  -77.5211 C.3       6 UNK         0.0408 
     41 CB        -75.8593   25.8129  -79.0074 C.3       6 UNK        -0.1791 
     42 N         -75.9284   24.8910  -76.7040 N.am      6 UNK        -0.4762 
     43 C         -77.1930   24.5568  -76.4272 C.2       6 UNK         0.5007 
     44 O         -78.1753   25.1447  -76.8843 O.2       6 UNK        -0.5032 
     45 CA        -77.3895   23.3731  -75.4602 C.3       5 UNK         0.0783 
     46 C46       -77.6052   23.8205  -73.9935 C.3       11 UNK        -0.0857 
     47 S47       -76.1933   24.7318  -73.2706 S.3       11 UNK        -0.2512 
     48 C48       -77.0390   26.0288  -72.3073 C.3       11 UNK         0.0225 
     49 N         -78.5261   22.5817  -75.9297 N.am      5 UNK        -0.4615 
     50 C         -78.4265   21.5079  -76.7232 C.2       4 UNK         0.5053 
     51 O         -77.3457   21.0296  -77.0712 O.2       4 UNK        -0.5105 
     52 CA        -79.7277   20.8665  -77.2538 C.3       4 UNK         0.0263 
     53 CB        -79.6738   19.3238  -77.2122 C.3       4 UNK        -0.1981 
     54 N         -80.9660   21.3677  -76.6403 N.am      4 UNK        -0.4224 
     55 C         -81.3662   21.2296  -75.3683 C.2       3 UNK         0.4895 
     56 O         -80.7383   20.6266  -74.4955 O.2       3 UNK        -0.5091 
     57 CA        -82.7064   21.8956  -75.0120 C.3       3 UNK         0.0250 
     58 CB        -83.7856   20.8344  -74.7407 C.3       3 UNK        -0.1996 
     59 N         -82.5918   22.7817  -73.8512 N.am      3 UNK        -0.4254 
     60 C         -81.7956   23.8573  -73.7844 C.2       2 UNK         0.5004 
     61 O         -81.0471   24.2159  -74.6970 O.2       2 UNK        -0.5226 
     62 CA        -81.8191   24.6366  -72.4590 C.3       2 UNK         0.0269 
     63 CB        -80.8051   24.0450  -71.4661 C.3       2 UNK        -0.1926 
     64 N         -81.5207   26.0556  -72.6604 N.am      2 UNK        -0.4687 
     65 C         -82.3755   26.9534  -73.1739 C.2       1 UNK         0.5165 
     66 O         -83.5371   26.6819  -73.4847 O.2       1 UNK        -0.5079 
     67 H67       -78.7504   29.9133  -71.1606 H         1 UNK         0.0900 
     68 H68       -79.4484   29.5764  -69.5808 H         1 UNK         0.0900 
     69 H69       -78.7090   28.2672  -70.5043 H         1 UNK         0.0900 
     70 H70       -79.7912   28.7388  -73.0903 H         1 UNK         0.2959 
     71 H71       -82.6577   29.0329  -72.9311 H         1 UNK         0.1079 
     72 H72       -82.7127   28.9354  -75.2710 H         1 UNK         0.0837 
     73 H73       -81.2873   29.8412  -74.8884 H         1 UNK         0.0837 
     74 H74       -78.6453   28.0844  -76.9525 H         1 UNK         0.0685 
     75 H75       -79.3834   29.5946  -76.4741 H         1 UNK         0.0685 
     76 H76       -78.5525   26.4555  -74.5696 H         1 UNK         0.1434 
     77 H77       -76.0164   28.4946  -71.7744 H         1 UNK         0.1329 
     78 H78       -77.8771   30.6596  -74.9700 H         1 UNK         0.1335 
     79 H79       -76.9443   31.8307  -72.9667 H         1 UNK         0.0680 
     80 H80       -76.0529   30.9544  -71.7520 H         1 UNK         0.0680 
     81 H81       -74.0212   29.6866  -72.1507 H         1 UNK         0.1032 
     82 H82       -73.5643   29.2793  -73.7827 H         1 UNK         0.1032 
     83 H83       -72.2696   31.4681  -72.0871 H         1 UNK         0.0461 
     84 H84       -69.7990   29.4578  -73.3673 H         1 UNK         0.3453 
     85 H85       -69.6373   28.4548  -71.9466 H         1 UNK         0.3453 
     86 H86       -71.7515   30.6340  -74.8476 H         1 UNK         0.2984 
     87 H87       -70.5027   33.0942  -75.8656 H         1 UNK         0.0554 
     88 H88       -68.4753   33.8616  -74.6852 H         1 UNK         0.0847 
     89 H89       -68.0165   33.1309  -76.2125 H         1 UNK         0.0847 
     90 H90       -67.7960   32.2414  -74.7064 H         1 UNK         0.0847 
     91 H91       -70.3800   31.3020  -77.1522 H         1 UNK         0.3141 
     92 H92       -70.1481   29.3307  -77.9361 H         1 UNK         0.0743 
     93 H93       -67.6187   27.9225  -76.9195 H         1 UNK         0.0784 
     94 H94       -68.3854   27.6790  -78.4900 H         1 UNK         0.0784 
     95 H95       -67.6516   29.2253  -78.0988 H         1 UNK         0.0784 
     96 H96       -69.8558   26.8741  -76.5780 H         1 UNK         0.3213 
     97 H97       -71.6296   25.6827  -76.0462 H         1 UNK         0.0855 
     98 H98       -72.7088   27.1474  -73.5769 H         1 UNK         0.0814 
     99 H99       -71.0773   26.5168  -73.7361 H         1 UNK         0.0814 
    100 H100      -72.4445   25.4153  -73.7382 H         1 UNK         0.0814 
    101 H101      -74.2928   26.4353  -75.3087 H         1 UNK         0.3105 
    102 H102      -75.9916   26.9258  -77.1613 H         1 UNK         0.0547 
    103 H103      -75.4928   26.6377  -79.6197 H         1 UNK         0.0837 
    104 H104      -75.4245   24.8938  -79.4016 H         1 UNK         0.0837 
    105 H105      -76.9375   25.7638  -79.1565 H         1 UNK         0.0837 
    106 H106      -75.1790   24.3597  -76.2796 H         1 UNK         0.3020 
    107 H107      -76.4879   22.7565  -75.4844 H         1 UNK         0.1245 
    108 H108      -77.7700   22.9398  -73.3707 H         1 UNK         0.0781 
    109 H109      -78.5191   24.4057  -73.9071 H         1 UNK         0.0781 
    110 H110      -76.4385   26.2224  -71.4171 H         1 UNK         0.0836 
    111 H111      -77.9978   25.6638  -71.9395 H         1 UNK         0.0836 
    112 H112      -79.4412   22.9676  -75.7282 H         1 UNK         0.3022 
    113 H113      -79.7847   21.1583  -78.3035 H         1 UNK         0.0747 
    114 H114      -80.5867   18.8832  -77.6130 H         1 UNK         0.0793 
    115 H115      -78.8447   18.9437  -77.8102 H         1 UNK         0.0793 
    116 H116      -79.5371   18.9492  -76.1974 H         1 UNK         0.0793 
    117 H117      -81.5560   21.9071  -77.2596 H         1 UNK         0.3047 
    118 H118      -83.0350   22.5071  -75.8553 H         1 UNK         0.0822 
    119 H119      -83.9058   20.1721  -75.5992 H         1 UNK         0.0807 
    120 H120      -84.7561   21.2926  -74.5488 H         1 UNK         0.0807 
    121 H121      -83.5317   20.2109  -73.8823 H         1 UNK         0.0807 
    122 H122      -83.1412   22.5309  -73.0421 H         1 UNK         0.2946 
    123 H123      -82.8190   24.5574  -72.0254 H         1 UNK         0.1144 
    124 H124      -81.0409   23.0038  -71.2419 H         1 UNK         0.0793 
    125 H125      -80.8108   24.5875  -70.5204 H         1 UNK         0.0793 
    126 H126      -79.7899   24.0663  -71.8606 H         1 UNK         0.0793 
    127 H127      -80.5801   26.3609  -72.4644 H         1 UNK         0.2896 
@<TRIPOS>BOND
     1    1    2 1    
     2    1   67 1    
     3    1   68 1    
     4    1   69 1    
     5    2    3 2    
     6    2    4 am   BACKBONE|DICT|INTERRES
     7    4    5 1    
     8    4   70 1    
     9    5    6 1    
    10    5   65 1    
    11    5   71 1    
    12    6    7 1    
    13    6   72 1    
    14    6   73 1    
    15    7    8 1    
    16    8    9 1    
    17    8   74 1    
    18    8   75 1    
    19    9   10 ar   
    20    9   14 ar   
    21   10   11 ar   
    22   10   76 1    
    23   11   12 ar   
    24   11   48 1    
    25   12   13 ar   
    26   12   77 1    
    27   13   14 ar   
    28   13   15 1    
    29   14   78 1    
    30   15   16 1    
    31   15   79 1    
    32   15   80 1    
    33   16   17 1    
    34   17   18 1    
    35   17   81 1    
    36   17   82 1    
    37   18   19 1    
    38   18   22 1    
    39   18   83 1    
    40   19   20 am   BACKBONE|DICT|INTERRES
    41   19   21 2    
    42   20   84 1    
    43   20   85 1    
    44   22   23 am   BACKBONE|DICT|INTERRES
    45   22   86 1    
    46   23   24 2    
    47   23   25 1    
    48   25   26 1    
    49   25   27 1    
    50   25   87 1    
    51   26   88 1    
    52   26   89 1    
    53   26   90 1    
    54   27   28 am   BACKBONE|DICT|INTERRES
    55   27   91 1    
    56   28   29 2    
    57   28   30 1    
    58   30   31 1    
    59   30   32 1    
    60   30   92 1    
    61   31   93 1    
    62   31   94 1    
    63   31   95 1    
    64   32   33 am   BACKBONE|DICT|INTERRES
    65   32   96 1    
    66   33   34 2    
    67   33   35 1    
    68   35   36 1    
    69   35   37 1    
    70   35   97 1    
    71   36   98 1    
    72   36   99 1    
    73   36  100 1    
    74   37   38 am   BACKBONE|DICT|INTERRES
    75   37  101 1    
    76   38   39 2    
    77   38   40 1    
    78   40   41 1    
    79   40   42 1    
    80   40  102 1    
    81   41  103 1    
    82   41  104 1    
    83   41  105 1    
    84   42   43 am   BACKBONE|DICT|INTERRES
    85   42  106 1    
    86   43   44 2    
    87   43   45 1    
    88   45   46 1    
    89   45   49 1    
    90   45  107 1    
    91   46   47 1    
    92   46  108 1    
    93   46  109 1    
    94   47   48 1    
    95   48  110 1    
    96   48  111 1    
    97   49   50 am   BACKBONE|DICT|INTERRES
    98   49  112 1    
    99   50   51 2    
   100   50   52 1    
   101   52   53 1    
   102   52   54 1    
   103   52  113 1    
   104   53  114 1    
   105   53  115 1    
   106   53  116 1    
   107   54   55 am   BACKBONE|DICT|INTERRES
   108   54  117 1    
   109   55   56 2    
   110   55   57 1    
   111   57   58 1    
   112   57   59 1    
   113   57  118 1    
   114   58  119 1    
   115   58  120 1    
   116   58  121 1    
   117   59   60 am   BACKBONE|DICT|INTERRES
   118   59  122 1    
   119   60   61 2    
   120   60   62 1    
   121   62   63 1    
   122   62   64 1    
   123   62  123 1    
   124   63  124 1    
   125   63  125 1    
   126   63  126 1    
   127   64   65 am   BACKBONE|DICT|INTERRES
   128   64  127 1    
   129   65   66 2    
@<TRIPOS>SUBSTRUCTURE
     1 UNK         1 GROUP             0       ****    0 ROOT    
