@<TRIPOS>MOLECULE
3R135
127   129    1
SMALL
USER_CHARGES


@<TRIPOS>ATOM
      1 CA        -83.3245   23.3831  -72.4164 C.3       0 UNK        -0.1998 
      2 C         -82.7133   24.6507  -72.9924 C.2       0 UNK         0.4909 
      3 O         -82.8560   24.9145  -74.1871 O.2       0 UNK        -0.5240 
      4 N         -82.0384   25.4421  -72.1479 N.am      1 UNK        -0.4739 
      5 CA        -81.4242   26.7211  -72.5190 C.3       1 UNK         0.0864 
      6 C6        -80.9894   27.5308  -71.2722 C.3       11 UNK        -0.0881 
      7 S7        -80.9787   29.3287  -71.5976 S.3       11 UNK        -0.2682 
      8 C8        -79.3824   29.8504  -70.8937 C.3       11 UNK         0.0289 
      9 C9        -78.1967   29.3794  -71.7238 C.ar      11 UNK        -0.0687 
     10 C10       -77.4314   28.2900  -71.3003 C.ar      11 UNK        -0.0823 
     11 C11       -76.3302   27.8642  -72.0459 C.ar      11 UNK        -0.0830 
     12 C12       -75.9975   28.5334  -73.2265 C.ar      11 UNK        -0.1021 
     13 C13       -76.7392   29.6409  -73.6524 C.ar      11 UNK        -0.0753 
     14 C14       -77.8428   30.0532  -72.8973 C.ar      11 UNK        -0.0933 
     15 C15       -76.3667   30.3967  -74.9263 C.3       11 UNK         0.0166 
     16 S16       -74.5783   30.6998  -75.1169 S.3       11 UNK        -0.2615 
     17 C17       -74.2139   31.6456  -73.6009 C.3       11 UNK        -0.0865 
     18 CA        -72.6976   31.8780  -73.3794 C.3       10 UNK         0.0862 
     19 C         -72.4787   32.8000  -72.1428 C.2       10 UNK         0.5551 
     20 N         -71.9507   32.3062  -71.0291 N.am      10 UNK        -0.7319 
     21 O         -72.7954   33.9857  -72.1992 O.2       10 UNK        -0.5018 
     22 N         -71.9399   30.6123  -73.3594 N.am      10 UNK        -0.4509 
     23 C         -70.6064   30.5137  -73.4098 C.2       10 UNK         0.4899 
     24 O         -69.8519   31.4801  -73.5249 O.2       10 UNK        -0.4839 
     25 CA        -69.9978   29.1045  -73.3095 C.3       9 UNK         0.0222 
     26 CB        -70.2067   28.4945  -71.9079 C.3       9 UNK        -0.1966 
     27 N         -70.4177   28.1865  -74.3766 N.am      9 UNK        -0.4218 
     28 C         -71.6276   27.6547  -74.5965 C.2       9 UNK         0.5020 
     29 O         -72.6200   27.8667  -73.8958 O.2       9 UNK        -0.5274 
     30 CA        -71.7155   26.6631  -75.7678 C.3       8 UNK         0.0270 
     31 CB        -71.4353   25.2359  -75.2719 C.3       8 UNK        -0.1976 
     32 N         -73.0280   26.7033  -76.4143 N.am      8 UNK        -0.4313 
     33 C         -73.4327   27.6823  -77.2358 C.2       8 UNK         0.5041 
     34 O         -72.6996   28.6089  -77.5883 O.2       8 UNK        -0.5577 
     35 CA        -74.8887   27.6240  -77.7520 C.3       7 UNK         0.0284 
     36 CB        -75.0812   28.3799  -79.0828 C.3       7 UNK        -0.1958 
     37 N         -75.4507   26.2712  -77.8457 N.am      7 UNK        -0.4454 
     38 C         -74.9876   25.2257  -78.5483 C.2       7 UNK         0.5089 
     39 O         -74.0033   25.2680  -79.2879 O.2       7 UNK        -0.5125 
     40 CA        -75.7548   23.9008  -78.3449 C.3       6 UNK         0.0408 
     41 CB        -74.9868   22.6677  -78.8646 C.3       6 UNK        -0.1791 
     42 N         -76.1692   23.7162  -76.9466 N.am      6 UNK        -0.4762 
     43 C         -75.3706   23.6607  -75.8689 C.2       6 UNK         0.5007 
     44 O         -74.1430   23.6335  -75.9357 O.2       6 UNK        -0.5032 
     45 CA        -76.0316   23.7133  -74.4764 C.3       5 UNK         0.0783 
     46 C46       -75.7767   25.0938  -73.8288 C.3       11 UNK        -0.0857 
     47 S47       -76.2107   25.1032  -72.0618 S.3       11 UNK        -0.2512 
     48 C48       -75.4905   26.6942  -71.5585 C.3       11 UNK         0.0225 
     49 N         -77.4628   23.3958  -74.5104 N.am      5 UNK        -0.4615 
     50 C         -77.9601   22.1636  -74.6706 C.2       4 UNK         0.5053 
     51 O         -77.2676   21.1505  -74.7682 O.2       4 UNK        -0.5105 
     52 CA        -79.4884   22.0476  -74.7606 C.3       4 UNK         0.0263 
     53 CB        -80.1099   21.9764  -73.3580 C.3       4 UNK        -0.1981 
     54 N         -80.0802   23.1529  -75.5210 N.am      4 UNK        -0.4224 
     55 C         -79.9914   23.2727  -76.8543 C.2       3 UNK         0.4895 
     56 O         -79.4557   22.4372  -77.5824 O.2       3 UNK        -0.5091 
     57 CA        -80.5714   24.5478  -77.4873 C.3       3 UNK         0.0250 
     58 CB        -82.0713   24.3769  -77.7751 C.3       3 UNK        -0.1996 
     59 N         -80.3615   25.7409  -76.6661 N.am      3 UNK        -0.4254 
     60 C         -79.1677   26.3089  -76.4405 C.2       2 UNK         0.5004 
     61 O         -78.1092   25.8991  -76.9134 O.2       2 UNK        -0.5226 
     62 CA        -79.1381   27.5311  -75.5116 C.3       2 UNK         0.0269 
     63 CB        -79.3132   28.8177  -76.3335 C.3       2 UNK        -0.1926 
     64 N         -80.1459   27.4989  -74.4503 N.am      2 UNK        -0.4687 
     65 C         -80.2696   26.5366  -73.5263 C.2       1 UNK         0.5165 
     66 O         -79.5436   25.5392  -73.4685 O.2       1 UNK        -0.5079 
     67 H67       -84.3286   23.5871  -72.0458 H         1 UNK         0.0900 
     68 H68       -83.3987   22.6121  -73.1827 H         1 UNK         0.0900 
     69 H69       -82.7262   22.9891  -71.5950 H         1 UNK         0.0900 
     70 H70       -81.9215   25.1573  -71.1861 H         1 UNK         0.2959 
     71 H71       -82.2137   27.2817  -73.0258 H         1 UNK         0.1079 
     72 H72       -80.0241   27.1898  -70.8953 H         1 UNK         0.0837 
     73 H73       -81.6963   27.3719  -70.4562 H         1 UNK         0.0837 
     74 H74       -79.3055   29.4910  -69.8663 H         1 UNK         0.0685 
     75 H75       -79.3672   30.9397  -70.8340 H         1 UNK         0.0685 
     76 H76       -77.6886   27.7721  -70.3865 H         1 UNK         0.1434 
     77 H77       -75.1476   28.2022  -73.8064 H         1 UNK         0.1329 
     78 H78       -78.4303   30.9022  -73.2192 H         1 UNK         0.1335 
     79 H79       -76.7078   29.8239  -75.7870 H         1 UNK         0.0680 
     80 H80       -76.8839   31.3564  -74.9684 H         1 UNK         0.0680 
     81 H81       -74.6351   31.1219  -72.7410 H         1 UNK         0.1032 
     82 H82       -74.7439   32.5978  -73.6678 H         1 UNK         0.1032 
     83 H83       -72.3293   32.4424  -74.2384 H         1 UNK         0.0461 
     84 H84       -71.8110   32.9118  -70.2358 H         1 UNK         0.3453 
     85 H85       -71.6922   31.3344  -70.9769 H         1 UNK         0.3453 
     86 H86       -72.4794   29.7515  -73.3453 H         1 UNK         0.2984 
     87 H87       -68.9212   29.2232  -73.4436 H         1 UNK         0.0554 
     88 H88       -69.8010   29.1491  -71.1355 H         1 UNK         0.0847 
     89 H89       -69.6994   27.5342  -71.8156 H         1 UNK         0.0847 
     90 H90       -71.2605   28.3372  -71.6762 H         1 UNK         0.0847 
     91 H91       -69.6855   27.9470  -75.0313 H         1 UNK         0.3141 
     92 H92       -70.9596   26.9233  -76.5121 H         1 UNK         0.0743 
     93 H93       -70.4409   25.1616  -74.8300 H         1 UNK         0.0784 
     94 H94       -71.4806   24.5154  -76.0890 H         1 UNK         0.0784 
     95 H95       -72.1527   24.9256  -74.5108 H         1 UNK         0.0784 
     96 H96       -73.6667   25.9533  -76.1903 H         1 UNK         0.3213 
     97 H97       -75.4840   28.1376  -76.9966 H         1 UNK         0.0855 
     98 H98       -74.4719   27.9526  -79.8798 H         1 UNK         0.0814 
     99 H99       -74.7987   29.4287  -78.9825 H         1 UNK         0.0814 
    100 H100      -76.1222   28.3569  -79.4050 H         1 UNK         0.0814 
    101 H101      -76.3210   26.1191  -77.3368 H         1 UNK         0.3105 
    102 H102      -76.6748   23.9874  -78.9249 H         1 UNK         0.0547 
    103 H103      -75.5551   21.7515  -78.7057 H         1 UNK         0.0837 
    104 H104      -74.0200   22.5533  -78.3736 H         1 UNK         0.0837 
    105 H105      -74.7976   22.7500  -79.9354 H         1 UNK         0.0837 
    106 H106      -77.1641   23.7996  -76.7800 H         1 UNK         0.3020 
    107 H107      -75.5281   22.9540  -73.8730 H         1 UNK         0.1245 
    108 H108      -76.3487   25.8702  -74.3400 H         1 UNK         0.0781 
    109 H109      -74.7249   25.3770  -73.9111 H         1 UNK         0.0781 
    110 H110      -74.4662   26.7745  -71.9271 H         1 UNK         0.0836 
    111 H111      -75.4217   26.7207  -70.4700 H         1 UNK         0.0836 
    112 H112      -78.1029   24.1677  -74.3591 H         1 UNK         0.3022 
    113 H113      -79.7176   21.1126  -75.2767 H         1 UNK         0.0747 
    114 H114      -81.1721   21.7446  -73.4145 H         1 UNK         0.0793 
    115 H115      -79.6432   21.1897  -72.7634 H         1 UNK         0.0793 
    116 H116      -79.9910   22.9121  -72.8105 H         1 UNK         0.0793 
    117 H117      -80.5092   23.9009  -74.9915 H         1 UNK         0.3047 
    118 H118      -80.0586   24.7038  -78.4391 H         1 UNK         0.0822 
    119 H119      -82.4770   25.2443  -78.2961 H         1 UNK         0.0807 
    120 H120      -82.6464   24.2359  -76.8590 H         1 UNK         0.0807 
    121 H121      -82.2499   23.5070  -78.4088 H         1 UNK         0.0807 
    122 H122      -81.1744   26.1344  -76.2132 H         1 UNK         0.2946 
    123 H123      -78.1582   27.5486  -75.0310 H         1 UNK         0.1144 
    124 H124      -79.2212   29.7058  -75.7084 H         1 UNK         0.0793 
    125 H125      -80.2874   28.8545  -76.8228 H         1 UNK         0.0793 
    126 H126      -78.5555   28.8887  -77.1153 H         1 UNK         0.0793 
    127 H127      -80.7702   28.2915  -74.4031 H         1 UNK         0.2896 
@<TRIPOS>BOND
     1    1    2 1    
     2    1   67 1    
     3    1   68 1    
     4    1   69 1    
     5    2    3 2    
     6    2    4 am   BACKBONE|DICT|INTERRES
     7    4    5 1    
     8    4   70 1    
     9    5    6 1    
    10    5   65 1    
    11    5   71 1    
    12    6    7 1    
    13    6   72 1    
    14    6   73 1    
    15    7    8 1    
    16    8    9 1    
    17    8   74 1    
    18    8   75 1    
    19    9   10 ar   
    20    9   14 ar   
    21   10   11 ar   
    22   10   76 1    
    23   11   12 ar   
    24   11   48 1    
    25   12   13 ar   
    26   12   77 1    
    27   13   14 ar   
    28   13   15 1    
    29   14   78 1    
    30   15   16 1    
    31   15   79 1    
    32   15   80 1    
    33   16   17 1    
    34   17   18 1    
    35   17   81 1    
    36   17   82 1    
    37   18   19 1    
    38   18   22 1    
    39   18   83 1    
    40   19   20 am   BACKBONE|DICT|INTERRES
    41   19   21 2    
    42   20   84 1    
    43   20   85 1    
    44   22   23 am   BACKBONE|DICT|INTERRES
    45   22   86 1    
    46   23   24 2    
    47   23   25 1    
    48   25   26 1    
    49   25   27 1    
    50   25   87 1    
    51   26   88 1    
    52   26   89 1    
    53   26   90 1    
    54   27   28 am   BACKBONE|DICT|INTERRES
    55   27   91 1    
    56   28   29 2    
    57   28   30 1    
    58   30   31 1    
    59   30   32 1    
    60   30   92 1    
    61   31   93 1    
    62   31   94 1    
    63   31   95 1    
    64   32   33 am   BACKBONE|DICT|INTERRES
    65   32   96 1    
    66   33   34 2    
    67   33   35 1    
    68   35   36 1    
    69   35   37 1    
    70   35   97 1    
    71   36   98 1    
    72   36   99 1    
    73   36  100 1    
    74   37   38 am   BACKBONE|DICT|INTERRES
    75   37  101 1    
    76   38   39 2    
    77   38   40 1    
    78   40   41 1    
    79   40   42 1    
    80   40  102 1    
    81   41  103 1    
    82   41  104 1    
    83   41  105 1    
    84   42   43 am   BACKBONE|DICT|INTERRES
    85   42  106 1    
    86   43   44 2    
    87   43   45 1    
    88   45   46 1    
    89   45   49 1    
    90   45  107 1    
    91   46   47 1    
    92   46  108 1    
    93   46  109 1    
    94   47   48 1    
    95   48  110 1    
    96   48  111 1    
    97   49   50 am   BACKBONE|DICT|INTERRES
    98   49  112 1    
    99   50   51 2    
   100   50   52 1    
   101   52   53 1    
   102   52   54 1    
   103   52  113 1    
   104   53  114 1    
   105   53  115 1    
   106   53  116 1    
   107   54   55 am   BACKBONE|DICT|INTERRES
   108   54  117 1    
   109   55   56 2    
   110   55   57 1    
   111   57   58 1    
   112   57   59 1    
   113   57  118 1    
   114   58  119 1    
   115   58  120 1    
   116   58  121 1    
   117   59   60 am   BACKBONE|DICT|INTERRES
   118   59  122 1    
   119   60   61 2    
   120   60   62 1    
   121   62   63 1    
   122   62   64 1    
   123   62  123 1    
   124   63  124 1    
   125   63  125 1    
   126   63  126 1    
   127   64   65 am   BACKBONE|DICT|INTERRES
   128   64  127 1    
   129   65   66 2    
@<TRIPOS>SUBSTRUCTURE
     1 UNK         1 GROUP             0       ****    0 ROOT    
