@<TRIPOS>MOLECULE
3R135
127   129    1
SMALL
USER_CHARGES


@<TRIPOS>ATOM
      1 CA        -86.3186   28.8813  -74.6365 C.3       0 UNK        -0.1998 
      2 C         -84.9657   29.3504  -75.1499 C.2       0 UNK         0.4909 
      3 O         -84.8432   29.6948  -76.3257 O.2       0 UNK        -0.5240 
      4 N         -83.9526   29.3723  -74.2745 N.am      1 UNK        -0.4739 
      5 CA        -82.5660   29.7402  -74.5865 C.3       1 UNK         0.0864 
      6 C6        -81.7160   29.9831  -73.3082 C.3       11 UNK        -0.0881 
      7 S7        -81.9238   28.7015  -72.0203 S.3       11 UNK        -0.2682 
      8 C8        -80.6650   29.1930  -70.8007 C.3       11 UNK         0.0289 
      9 C9        -79.3623   28.4295  -70.9908 C.ar      11 UNK        -0.0687 
     10 C10       -79.3104   27.0651  -70.6825 C.ar      11 UNK        -0.0823 
     11 C11       -78.1197   26.3493  -70.8287 C.ar      11 UNK        -0.0830 
     12 C12       -76.9746   27.0132  -71.2668 C.ar      11 UNK        -0.1021 
     13 C13       -77.0059   28.3753  -71.5752 C.ar      11 UNK        -0.0753 
     14 C14       -78.2075   29.0806  -71.4426 C.ar      11 UNK        -0.0933 
     15 C15       -75.7279   29.0664  -72.0310 C.3       11 UNK         0.0166 
     16 S16       -75.1448   28.3765  -73.6098 S.3       11 UNK        -0.2615 
     17 C17       -73.3754   28.8280  -73.6263 C.3       11 UNK        -0.0865 
     18 CA        -72.9760   29.7582  -74.8025 C.3       10 UNK         0.0862 
     19 C         -71.4414   30.0256  -74.7869 C.2       10 UNK         0.5551 
     20 N         -70.6777   29.6044  -75.7899 N.am      10 UNK        -0.7319 
     21 O         -70.9363   30.6283  -73.8432 O.2       10 UNK        -0.5018 
     22 N         -73.4846   29.2740  -76.0957 N.am      10 UNK        -0.4509 
     23 C         -73.6150   30.0357  -77.1916 C.2       10 UNK         0.4899 
     24 O         -73.3866   31.2464  -77.2067 O.2       10 UNK        -0.4839 
     25 CA        -74.0870   29.3402  -78.4854 C.3       9 UNK         0.0222 
     26 CB        -73.5597   30.0323  -79.7607 C.3       9 UNK        -0.1966 
     27 N         -73.8030   27.9014  -78.5118 N.am      9 UNK        -0.4218 
     28 C         -72.5998   27.3132  -78.4788 C.2       9 UNK         0.5020 
     29 O         -71.5255   27.9195  -78.4477 O.2       9 UNK        -0.5274 
     30 CA        -72.6008   25.7768  -78.4208 C.3       8 UNK         0.0270 
     31 CB        -71.8942   25.1769  -79.6477 C.3       8 UNK        -0.1976 
     32 N         -71.9576   25.2913  -77.1980 N.am      8 UNK        -0.4313 
     33 C         -72.3932   25.5588  -75.9615 C.2       8 UNK         0.5041 
     34 O         -73.4063   26.2205  -75.7166 O.2       8 UNK        -0.5577 
     35 CA        -71.5580   25.0161  -74.7991 C.3       7 UNK         0.0284 
     36 CB        -70.3332   25.9152  -74.5381 C.3       7 UNK        -0.1958 
     37 N         -72.4353   24.9865  -73.6363 N.am      7 UNK        -0.4454 
     38 C         -72.2124   24.3749  -72.4698 C.2       7 UNK         0.5089 
     39 O         -71.1864   23.7500  -72.2000 O.2       7 UNK        -0.5125 
     40 CA        -73.3458   24.4633  -71.4385 C.3       6 UNK         0.0408 
     41 CB        -73.4466   25.8818  -70.8544 C.3       6 UNK        -0.1791 
     42 N         -74.6223   24.0516  -72.0376 N.am      6 UNK        -0.4762 
     43 C         -75.0662   22.7857  -72.0216 C.2       6 UNK         0.5007 
     44 O         -74.5093   21.8794  -71.3999 O.2       6 UNK        -0.5032 
     45 CA        -76.3278   22.4460  -72.8427 C.3       5 UNK         0.0783 
     46 C46       -77.6149   22.4176  -71.9650 C.3       11 UNK        -0.0857 
     47 S47       -78.6221   23.9409  -72.0130 S.3       11 UNK        -0.2512 
     48 C48       -78.0660   24.8562  -70.5473 C.3       11 UNK         0.0225 
     49 N         -76.4793   23.2467  -74.0657 N.am      5 UNK        -0.4615 
     50 C         -75.6789   23.1766  -75.1405 C.2       4 UNK         0.5053 
     51 O         -74.6849   22.4529  -75.1960 O.2       4 UNK        -0.5105 
     52 CA        -76.0384   24.0307  -76.3671 C.3       4 UNK         0.0263 
     53 CB        -76.7468   23.1853  -77.4392 C.3       4 UNK        -0.1981 
     54 N         -76.8665   25.1848  -76.0213 N.am      4 UNK        -0.4224 
     55 C         -76.8297   26.3789  -76.6166 C.2       3 UNK         0.4895 
     56 O         -76.1454   26.6336  -77.6108 O.2       3 UNK        -0.5091 
     57 CA        -77.7366   27.4596  -75.9957 C.3       3 UNK         0.0250 
     58 CB        -77.4009   28.8746  -76.4994 C.3       3 UNK        -0.1996 
     59 N         -79.1620   27.2192  -76.2162 N.am      3 UNK        -0.4254 
     60 C         -79.9051   26.2438  -75.6802 C.2       2 UNK         0.5004 
     61 O         -79.4486   25.3510  -74.9641 O.2       2 UNK        -0.5226 
     62 CA        -81.4190   26.3159  -75.9641 C.3       2 UNK         0.0269 
     63 CB        -82.1488   25.0145  -75.5834 C.3       2 UNK        -0.1926 
     64 N         -82.0436   27.4324  -75.2481 N.am      2 UNK        -0.4687 
     65 C         -81.8917   28.7326  -75.5389 C.2       1 UNK         0.5165 
     66 O         -81.2610   29.1446  -76.5146 O.2       1 UNK        -0.5079 
     67 H67       -86.2843   28.6167  -73.5797 H         1 UNK         0.0900 
     68 H68       -86.6481   28.0054  -75.1947 H         1 UNK         0.0900 
     69 H69       -87.0620   29.6674  -74.7650 H         1 UNK         0.0900 
     70 H70       -84.1094   29.0788  -73.3199 H         1 UNK         0.2959 
     71 H71       -82.6036   30.6864  -75.1315 H         1 UNK         0.1079 
     72 H72       -82.0055   30.9380  -72.8669 H         1 UNK         0.0837 
     73 H73       -80.6559   30.0823  -73.5523 H         1 UNK         0.0837 
     74 H74       -81.0509   28.9866  -69.8014 H         1 UNK         0.0685 
     75 H75       -80.5012   30.2708  -70.8447 H         1 UNK         0.0685 
     76 H76       -80.2038   26.5572  -70.3450 H         1 UNK         0.1434 
     77 H77       -76.0560   26.4630  -71.3875 H         1 UNK         0.1329 
     78 H78       -78.2407   30.1355  -71.6775 H         1 UNK         0.1335 
     79 H79       -74.9669   28.9295  -71.2616 H         1 UNK         0.0680 
     80 H80       -75.8760   30.1416  -72.1418 H         1 UNK         0.0680 
     81 H81       -73.1091   29.2930  -72.6755 H         1 UNK         0.1032 
     82 H82       -72.8035   27.9010  -73.6720 H         1 UNK         0.1032 
     83 H83       -73.4511   30.7232  -74.6158 H         1 UNK         0.0461 
     84 H84       -69.6878   29.7894  -75.7672 H         1 UNK         0.3453 
     85 H85       -71.0824   29.1162  -76.5782 H         1 UNK         0.3453 
     86 H86       -73.6773   28.2784  -76.1465 H         1 UNK         0.2984 
     87 H87       -75.1737   29.4273  -78.4943 H         1 UNK         0.0554 
     88 H88       -73.9081   29.5257  -80.6607 H         1 UNK         0.0847 
     89 H89       -72.4699   30.0556  -79.7887 H         1 UNK         0.0847 
     90 H90       -73.9066   31.0647  -79.8183 H         1 UNK         0.0847 
     91 H91       -74.6258   27.3088  -78.3949 H         1 UNK         0.3141 
     92 H92       -73.6337   25.4224  -78.4189 H         1 UNK         0.0743 
     93 H93       -72.3657   25.5155  -80.5713 H         1 UNK         0.0784 
     94 H94       -70.8441   25.4688  -79.6925 H         1 UNK         0.0784 
     95 H95       -71.9416   24.0878  -79.6412 H         1 UNK         0.0784 
     96 H96       -71.0981   24.7742  -77.3137 H         1 UNK         0.3213 
     97 H97       -71.2396   23.9977  -75.0311 H         1 UNK         0.0855 
     98 H98       -70.6269   26.9337  -74.2837 H         1 UNK         0.0814 
     99 H99       -69.6934   25.9735  -75.4194 H         1 UNK         0.0814 
    100 H100      -69.7199   25.5318  -73.7229 H         1 UNK         0.0814 
    101 H101      -73.3140   25.4613  -73.8085 H         1 UNK         0.3105 
    102 H102      -73.0927   23.7975  -70.6105 H         1 UNK         0.0547 
    103 H103      -74.1867   25.9294  -70.0558 H         1 UNK         0.0837 
    104 H104      -72.4934   26.1909  -70.4234 H         1 UNK         0.0837 
    105 H105      -73.7110   26.6198  -71.6100 H         1 UNK         0.0837 
    106 H106      -75.1253   24.7275  -72.5934 H         1 UNK         0.3020 
    107 H107      -76.1626   21.4188  -73.1780 H         1 UNK         0.1245 
    108 H108      -77.4024   22.1454  -70.9288 H         1 UNK         0.0781 
    109 H109      -78.2629   21.6209  -72.3334 H         1 UNK         0.0781 
    110 H110      -77.0508   24.5602  -70.2787 H         1 UNK         0.0836 
    111 H111      -78.6992   24.6033  -69.6957 H         1 UNK         0.0836 
    112 H112      -77.2998   23.8349  -74.0777 H         1 UNK         0.3022 
    113 H113      -75.0940   24.3869  -76.7807 H         1 UNK         0.0747 
    114 H114      -76.9114   23.7604  -78.3506 H         1 UNK         0.0793 
    115 H115      -76.1488   22.3141  -77.7099 H         1 UNK         0.0793 
    116 H116      -77.7153   22.8247  -77.0904 H         1 UNK         0.0793 
    117 H117      -77.5802   25.0619  -75.3097 H         1 UNK         0.3047 
    118 H118      -77.5682   27.4430  -74.9171 H         1 UNK         0.0822 
    119 H119      -76.3568   29.1158  -76.3050 H         1 UNK         0.0807 
    120 H120      -78.0022   29.6289  -75.9916 H         1 UNK         0.0807 
    121 H121      -77.5698   28.9743  -77.5722 H         1 UNK         0.0807 
    122 H122      -79.6583   27.9356  -76.7353 H         1 UNK         0.2946 
    123 H123      -81.5469   26.4713  -77.0379 H         1 UNK         0.1144 
    124 H124      -81.7173   24.1591  -76.1050 H         1 UNK         0.0793 
    125 H125      -83.2045   25.0581  -75.8517 H         1 UNK         0.0793 
    126 H126      -82.0816   24.8111  -74.5137 H         1 UNK         0.0793 
    127 H127      -82.5524   27.1996  -74.4071 H         1 UNK         0.2896 
@<TRIPOS>BOND
     1    1    2 1    
     2    1   67 1    
     3    1   68 1    
     4    1   69 1    
     5    2    3 2    
     6    2    4 am   BACKBONE|DICT|INTERRES
     7    4    5 1    
     8    4   70 1    
     9    5    6 1    
    10    5   65 1    
    11    5   71 1    
    12    6    7 1    
    13    6   72 1    
    14    6   73 1    
    15    7    8 1    
    16    8    9 1    
    17    8   74 1    
    18    8   75 1    
    19    9   10 ar   
    20    9   14 ar   
    21   10   11 ar   
    22   10   76 1    
    23   11   12 ar   
    24   11   48 1    
    25   12   13 ar   
    26   12   77 1    
    27   13   14 ar   
    28   13   15 1    
    29   14   78 1    
    30   15   16 1    
    31   15   79 1    
    32   15   80 1    
    33   16   17 1    
    34   17   18 1    
    35   17   81 1    
    36   17   82 1    
    37   18   19 1    
    38   18   22 1    
    39   18   83 1    
    40   19   20 am   BACKBONE|DICT|INTERRES
    41   19   21 2    
    42   20   84 1    
    43   20   85 1    
    44   22   23 am   BACKBONE|DICT|INTERRES
    45   22   86 1    
    46   23   24 2    
    47   23   25 1    
    48   25   26 1    
    49   25   27 1    
    50   25   87 1    
    51   26   88 1    
    52   26   89 1    
    53   26   90 1    
    54   27   28 am   BACKBONE|DICT|INTERRES
    55   27   91 1    
    56   28   29 2    
    57   28   30 1    
    58   30   31 1    
    59   30   32 1    
    60   30   92 1    
    61   31   93 1    
    62   31   94 1    
    63   31   95 1    
    64   32   33 am   BACKBONE|DICT|INTERRES
    65   32   96 1    
    66   33   34 2    
    67   33   35 1    
    68   35   36 1    
    69   35   37 1    
    70   35   97 1    
    71   36   98 1    
    72   36   99 1    
    73   36  100 1    
    74   37   38 am   BACKBONE|DICT|INTERRES
    75   37  101 1    
    76   38   39 2    
    77   38   40 1    
    78   40   41 1    
    79   40   42 1    
    80   40  102 1    
    81   41  103 1    
    82   41  104 1    
    83   41  105 1    
    84   42   43 am   BACKBONE|DICT|INTERRES
    85   42  106 1    
    86   43   44 2    
    87   43   45 1    
    88   45   46 1    
    89   45   49 1    
    90   45  107 1    
    91   46   47 1    
    92   46  108 1    
    93   46  109 1    
    94   47   48 1    
    95   48  110 1    
    96   48  111 1    
    97   49   50 am   BACKBONE|DICT|INTERRES
    98   49  112 1    
    99   50   51 2    
   100   50   52 1    
   101   52   53 1    
   102   52   54 1    
   103   52  113 1    
   104   53  114 1    
   105   53  115 1    
   106   53  116 1    
   107   54   55 am   BACKBONE|DICT|INTERRES
   108   54  117 1    
   109   55   56 2    
   110   55   57 1    
   111   57   58 1    
   112   57   59 1    
   113   57  118 1    
   114   58  119 1    
   115   58  120 1    
   116   58  121 1    
   117   59   60 am   BACKBONE|DICT|INTERRES
   118   59  122 1    
   119   60   61 2    
   120   60   62 1    
   121   62   63 1    
   122   62   64 1    
   123   62  123 1    
   124   63  124 1    
   125   63  125 1    
   126   63  126 1    
   127   64   65 am   BACKBONE|DICT|INTERRES
   128   64  127 1    
   129   65   66 2    
@<TRIPOS>SUBSTRUCTURE
     1 UNK         1 GROUP             0       ****    0 ROOT    
