@<TRIPOS>MOLECULE
3R135
127   129    1
SMALL
USER_CHARGES


@<TRIPOS>ATOM
      1 CA        -78.5700   30.5596  -76.1112 C.3       0 UNK        -0.1998 
      2 C         -78.8807   29.4964  -75.0690 C.2       0 UNK         0.4909 
      3 O         -78.0629   28.6071  -74.8454 O.2       0 UNK        -0.5240 
      4 N         -80.0548   29.5826  -74.4312 N.am      1 UNK        -0.4739 
      5 CA        -80.5437   28.5918  -73.4692 C.3       1 UNK         0.0864 
      6 C6        -81.6559   29.1938  -72.5727 C.3       11 UNK        -0.0881 
      7 S7        -82.0054   28.1833  -71.0915 S.3       11 UNK        -0.2682 
      8 C8        -81.0378   29.0393  -69.8078 C.3       11 UNK         0.0289 
      9 C9        -79.5449   28.9991  -70.0997 C.ar      11 UNK        -0.0687 
     10 C10       -78.8402   27.7967  -69.9958 C.ar      11 UNK        -0.0823 
     11 C11       -77.4737   27.7463  -70.2872 C.ar      11 UNK        -0.0830 
     12 C12       -76.8047   28.9195  -70.6545 C.ar      11 UNK        -0.1021 
     13 C13       -77.4965   30.1319  -70.7467 C.ar      11 UNK        -0.0753 
     14 C14       -78.8679   30.1623  -70.4766 C.ar      11 UNK        -0.0933 
     15 C15       -76.7681   31.4203  -71.1037 C.3       11 UNK         0.0166 
     16 S16       -76.5218   31.6001  -72.8990 S.3       11 UNK        -0.2615 
     17 C17       -74.8175   30.9779  -73.1118 C.3       11 UNK        -0.0865 
     18 CA        -74.6356   30.0577  -74.3564 C.3       10 UNK         0.0862 
     19 C         -74.3876   30.8446  -75.6804 C.2       10 UNK         0.5551 
     20 N         -73.4809   30.4101  -76.5483 N.am      10 UNK        -0.7319 
     21 O         -75.0410   31.8495  -75.9454 O.2       10 UNK        -0.5018 
     22 N         -73.6828   28.9606  -74.1135 N.am      10 UNK        -0.4509 
     23 C         -72.4153   29.0805  -73.6947 C.2       10 UNK         0.4899 
     24 O         -71.8688   30.1550  -73.4478 O.2       10 UNK        -0.4839 
     25 CA        -71.6192   27.7810  -73.5272 C.3       9 UNK         0.0222 
     26 CB        -72.0505   27.0333  -72.2529 C.3       9 UNK        -0.1966 
     27 N         -71.7763   26.9091  -74.6920 N.am      9 UNK        -0.4218 
     28 C         -70.7929   26.2065  -75.2671 C.2       9 UNK         0.5020 
     29 O         -69.6249   26.2026  -74.8747 O.2       9 UNK        -0.5274 
     30 CA        -71.1755   25.3562  -76.4906 C.3       8 UNK         0.0270 
     31 CB        -71.7866   24.0173  -76.0462 C.3       8 UNK        -0.1976 
     32 N         -72.1030   26.0301  -77.4014 N.am      8 UNK        -0.4313 
     33 C         -71.8335   27.1197  -78.1307 C.2       8 UNK         0.5041 
     34 O         -70.7425   27.6902  -78.1227 O.2       8 UNK        -0.5577 
     35 CA        -72.9626   27.6882  -79.0147 C.3       7 UNK         0.0284 
     36 CB        -72.9430   27.0491  -80.4174 C.3       7 UNK        -0.1958 
     37 N         -74.3049   27.6365  -78.4124 N.am      7 UNK        -0.4454 
     38 C         -75.0475   26.5629  -78.1104 C.2       7 UNK         0.5089 
     39 O         -74.7125   25.3997  -78.3439 O.2       7 UNK        -0.5125 
     40 CA        -76.3645   26.8408  -77.3689 C.3       6 UNK         0.0408 
     41 CB        -77.5716   26.5659  -78.2784 C.3       6 UNK        -0.1791 
     42 N         -76.5031   26.0528  -76.1429 N.am      6 UNK        -0.4762 
     43 C         -75.6148   25.9743  -75.1413 C.2       6 UNK         0.5007 
     44 O         -74.5141   26.5273  -75.1458 O.2       6 UNK        -0.5032 
     45 CA        -76.0314   25.1602  -73.9080 C.3       5 UNK         0.0783 
     46 C46       -76.9204   26.0313  -72.9899 C.3       11 UNK        -0.0857 
     47 S47       -77.3328   25.2089  -71.4172 S.3       11 UNK        -0.2512 
     48 C48       -76.7233   26.4227  -70.2005 C.3       11 UNK         0.0225 
     49 N         -76.6922   23.9200  -74.3195 N.am      5 UNK        -0.4615 
     50 C         -76.0588   22.7677  -74.5730 C.2       4 UNK         0.5053 
     51 O         -74.8433   22.6185  -74.4487 O.2       4 UNK        -0.5105 
     52 CA        -76.9137   21.5647  -75.0170 C.3       4 UNK         0.0263 
     53 CB        -77.1763   20.6315  -73.8236 C.3       4 UNK        -0.1981 
     54 N         -78.1966   21.9531  -75.6068 N.am      4 UNK        -0.4224 
     55 C         -78.3552   22.4163  -76.8550 C.2       3 UNK         0.4895 
     56 O         -77.4496   22.4704  -77.6865 O.2       3 UNK        -0.5091 
     57 CA        -79.7593   22.9297  -77.2356 C.3       3 UNK         0.0250 
     58 CB        -80.5616   21.8257  -77.9432 C.3       3 UNK        -0.1996 
     59 N         -80.5419   23.4517  -76.1050 N.am      3 UNK        -0.4254 
     60 C         -80.1615   24.4750  -75.3279 C.2       2 UNK         0.5004 
     61 O         -79.0916   25.0675  -75.4727 O.2       2 UNK        -0.5226 
     62 CA        -81.0843   24.8351  -74.1515 C.3       2 UNK         0.0269 
     63 CB        -80.9453   23.7936  -73.0278 C.3       2 UNK        -0.1926 
     64 N         -80.7724   26.1536  -73.5959 N.am      2 UNK        -0.4687 
     65 C         -81.0190   27.3203  -74.2047 C.2       1 UNK         0.5165 
     66 O         -81.6256   27.4199  -75.2756 O.2       1 UNK        -0.5079 
     67 H67       -78.3073   30.0899  -77.0586 H         1 UNK         0.0900 
     68 H68       -77.7252   31.1653  -75.7853 H         1 UNK         0.0900 
     69 H69       -79.4174   31.2226  -76.2835 H         1 UNK         0.0900 
     70 H70       -80.7044   30.3144  -74.6797 H         1 UNK         0.2959 
     71 H71       -79.6970   28.3198  -72.8343 H         1 UNK         0.1079 
     72 H72       -81.3713   30.1949  -72.2449 H         1 UNK         0.0837 
     73 H73       -82.5825   29.3216  -73.1360 H         1 UNK         0.0837 
     74 H74       -81.3918   30.0673  -69.7144 H         1 UNK         0.0685 
     75 H75       -81.2282   28.5621  -68.8455 H         1 UNK         0.0685 
     76 H76       -79.3614   26.8933  -69.7089 H         1 UNK         0.1434 
     77 H77       -75.7456   28.8903  -70.8678 H         1 UNK         0.1329 
     78 H78       -79.4079   31.0960  -70.5538 H         1 UNK         0.1335 
     79 H79       -77.3432   32.2791  -70.7539 H         1 UNK         0.0680 
     80 H80       -75.8144   31.4732  -70.5769 H         1 UNK         0.0680 
     81 H81       -74.5465   30.4290  -72.2102 H         1 UNK         0.1032 
     82 H82       -74.1302   31.8252  -73.1475 H         1 UNK         0.1032 
     83 H83       -75.5787   29.5369  -74.5208 H         1 UNK         0.0461 
     84 H84       -73.3174   30.9406  -77.3892 H         1 UNK         0.3453 
     85 H85       -72.8985   29.6221  -76.3195 H         1 UNK         0.3453 
     86 H86       -74.0362   28.0359  -74.3474 H         1 UNK         0.2984 
     87 H87       -70.5701   28.0647  -73.4190 H         1 UNK         0.0554 
     88 H88       -71.4258   26.1569  -72.0800 H         1 UNK         0.0847 
     89 H89       -73.0868   26.6978  -72.3097 H         1 UNK         0.0847 
     90 H90       -71.9605   27.6733  -71.3741 H         1 UNK         0.0847 
     91 H91       -72.7184   26.8095  -75.0651 H         1 UNK         0.3141 
     92 H92       -70.2595   25.1460  -77.0467 H         1 UNK         0.0743 
     93 H93       -72.7291   24.1598  -75.5153 H         1 UNK         0.0784 
     94 H94       -71.9799   23.3662  -76.8990 H         1 UNK         0.0784 
     95 H95       -71.1124   23.4820  -75.3762 H         1 UNK         0.0784 
     96 H96       -73.0285   25.6221  -77.5118 H         1 UNK         0.3213 
     97 H97       -72.7441   28.7498  -79.1425 H         1 UNK         0.0855 
     98 H98       -71.9744   27.1977  -80.8966 H         1 UNK         0.0814 
     99 H99       -73.6970   27.4938  -81.0667 H         1 UNK         0.0814 
    100 H100      -73.1219   25.9742  -80.3819 H         1 UNK         0.0814 
    101 H101      -74.6712   28.5380  -78.1374 H         1 UNK         0.3105 
    102 H102      -76.3901   27.8917  -77.0741 H         1 UNK         0.0547 
    103 H103      -77.5166   27.1556  -79.1942 H         1 UNK         0.0837 
    104 H104      -77.6231   25.5148  -78.5662 H         1 UNK         0.0837 
    105 H105      -78.5073   26.8228  -77.7806 H         1 UNK         0.0837 
    106 H106      -77.4091   25.6116  -75.9995 H         1 UNK         0.3020 
    107 H107      -75.1188   24.9155  -73.3592 H         1 UNK         0.1245 
    108 H108      -77.8555   26.2925  -73.4862 H         1 UNK         0.0781 
    109 H109      -76.4246   26.9812  -72.7812 H         1 UNK         0.0781 
    110 H110      -75.6516   26.5680  -70.3456 H         1 UNK         0.0836 
    111 H111      -76.8435   26.0095  -69.1981 H         1 UNK         0.0836 
    112 H112      -77.6820   23.9993  -74.5173 H         1 UNK         0.3022 
    113 H113      -76.3395   21.0112  -75.7633 H         1 UNK         0.0747 
    114 H114      -77.7258   19.7407  -74.1288 H         1 UNK         0.0793 
    115 H115      -76.2388   20.2949  -73.3785 H         1 UNK         0.0793 
    116 H116      -77.7484   21.1290  -73.0392 H         1 UNK         0.0793 
    117 H117      -79.0044   21.9229  -75.0025 H         1 UNK         0.3047 
    118 H118      -79.6175   23.7529  -77.9392 H         1 UNK         0.0822 
    119 H119      -81.5158   22.2019  -78.3125 H         1 UNK         0.0807 
    120 H120      -80.7647   20.9844  -77.2793 H         1 UNK         0.0807 
    121 H121      -80.0151   21.4368  -78.8038 H         1 UNK         0.0807 
    122 H122      -81.4258   22.9984  -75.9206 H         1 UNK         0.2946 
    123 H123      -82.1158   24.8454  -74.5111 H         1 UNK         0.1144 
    124 H124      -81.2224   22.7966  -73.3724 H         1 UNK         0.0793 
    125 H125      -81.5957   24.0316  -72.1856 H         1 UNK         0.0793 
    126 H126      -79.9221   23.7376  -72.6529 H         1 UNK         0.0793 
    127 H127      -80.2706   26.1625  -72.7199 H         1 UNK         0.2896 
@<TRIPOS>BOND
     1    1    2 1    
     2    1   67 1    
     3    1   68 1    
     4    1   69 1    
     5    2    3 2    
     6    2    4 am   BACKBONE|DICT|INTERRES
     7    4    5 1    
     8    4   70 1    
     9    5    6 1    
    10    5   65 1    
    11    5   71 1    
    12    6    7 1    
    13    6   72 1    
    14    6   73 1    
    15    7    8 1    
    16    8    9 1    
    17    8   74 1    
    18    8   75 1    
    19    9   10 ar   
    20    9   14 ar   
    21   10   11 ar   
    22   10   76 1    
    23   11   12 ar   
    24   11   48 1    
    25   12   13 ar   
    26   12   77 1    
    27   13   14 ar   
    28   13   15 1    
    29   14   78 1    
    30   15   16 1    
    31   15   79 1    
    32   15   80 1    
    33   16   17 1    
    34   17   18 1    
    35   17   81 1    
    36   17   82 1    
    37   18   19 1    
    38   18   22 1    
    39   18   83 1    
    40   19   20 am   BACKBONE|DICT|INTERRES
    41   19   21 2    
    42   20   84 1    
    43   20   85 1    
    44   22   23 am   BACKBONE|DICT|INTERRES
    45   22   86 1    
    46   23   24 2    
    47   23   25 1    
    48   25   26 1    
    49   25   27 1    
    50   25   87 1    
    51   26   88 1    
    52   26   89 1    
    53   26   90 1    
    54   27   28 am   BACKBONE|DICT|INTERRES
    55   27   91 1    
    56   28   29 2    
    57   28   30 1    
    58   30   31 1    
    59   30   32 1    
    60   30   92 1    
    61   31   93 1    
    62   31   94 1    
    63   31   95 1    
    64   32   33 am   BACKBONE|DICT|INTERRES
    65   32   96 1    
    66   33   34 2    
    67   33   35 1    
    68   35   36 1    
    69   35   37 1    
    70   35   97 1    
    71   36   98 1    
    72   36   99 1    
    73   36  100 1    
    74   37   38 am   BACKBONE|DICT|INTERRES
    75   37  101 1    
    76   38   39 2    
    77   38   40 1    
    78   40   41 1    
    79   40   42 1    
    80   40  102 1    
    81   41  103 1    
    82   41  104 1    
    83   41  105 1    
    84   42   43 am   BACKBONE|DICT|INTERRES
    85   42  106 1    
    86   43   44 2    
    87   43   45 1    
    88   45   46 1    
    89   45   49 1    
    90   45  107 1    
    91   46   47 1    
    92   46  108 1    
    93   46  109 1    
    94   47   48 1    
    95   48  110 1    
    96   48  111 1    
    97   49   50 am   BACKBONE|DICT|INTERRES
    98   49  112 1    
    99   50   51 2    
   100   50   52 1    
   101   52   53 1    
   102   52   54 1    
   103   52  113 1    
   104   53  114 1    
   105   53  115 1    
   106   53  116 1    
   107   54   55 am   BACKBONE|DICT|INTERRES
   108   54  117 1    
   109   55   56 2    
   110   55   57 1    
   111   57   58 1    
   112   57   59 1    
   113   57  118 1    
   114   58  119 1    
   115   58  120 1    
   116   58  121 1    
   117   59   60 am   BACKBONE|DICT|INTERRES
   118   59  122 1    
   119   60   61 2    
   120   60   62 1    
   121   62   63 1    
   122   62   64 1    
   123   62  123 1    
   124   63  124 1    
   125   63  125 1    
   126   63  126 1    
   127   64   65 am   BACKBONE|DICT|INTERRES
   128   64  127 1    
   129   65   66 2    
@<TRIPOS>SUBSTRUCTURE
     1 UNK         1 GROUP             0       ****    0 ROOT    
