@<TRIPOS>MOLECULE
3R135
127   129    1
SMALL
USER_CHARGES


@<TRIPOS>ATOM
      1 CA        -81.1972   22.8915  -71.9162 C.3       0 UNK        -0.1998 
      2 C         -81.0584   24.1817  -72.7077 C.2       0 UNK         0.4909 
      3 O         -80.2021   24.2677  -73.5875 O.2       0 UNK        -0.5240 
      4 N         -81.8962   25.1865  -72.4114 N.am      1 UNK        -0.4739 
      5 CA        -81.9037   26.5157  -73.0486 C.3       1 UNK         0.0864 
      6 C6        -80.6110   27.3218  -72.7294 C.3       11 UNK        -0.0881 
      7 S7        -80.9224   29.1048  -72.4934 S.3       11 UNK        -0.2682 
      8 C8        -80.0188   29.4461  -70.9465 C.3       11 UNK         0.0289 
      9 C9        -78.5120   29.3418  -71.1407 C.ar      11 UNK        -0.0687 
     10 C10       -77.8154   28.2121  -70.6981 C.ar      11 UNK        -0.0823 
     11 C11       -76.4389   28.0846  -70.9285 C.ar      11 UNK        -0.0830 
     12 C12       -75.7570   29.1360  -71.5481 C.ar      11 UNK        -0.1021 
     13 C13       -76.4332   30.2883  -71.9558 C.ar      11 UNK        -0.0753 
     14 C14       -77.8139   30.3803  -71.7638 C.ar      11 UNK        -0.0933 
     15 C15       -75.6580   31.4409  -72.5713 C.3       11 UNK         0.0166 
     16 S16       -75.1590   31.0813  -74.2820 S.3       11 UNK        -0.2615 
     17 C17       -73.9589   32.4314  -74.5596 C.3       11 UNK        -0.0865 
     18 CA        -72.4712   31.9897  -74.5025 C.3       10 UNK         0.0862 
     19 C         -72.0106   31.5947  -73.0704 C.2       10 UNK         0.5551 
     20 N         -71.8093   32.5738  -72.1986 N.am      10 UNK        -0.7319 
     21 O         -71.8638   30.4216  -72.7319 O.2       10 UNK        -0.5018 
     22 N         -72.1826   30.9561  -75.5034 N.am      10 UNK        -0.4509 
     23 C         -70.9690   30.6916  -75.9988 C.2       10 UNK         0.4899 
     24 O         -69.9516   31.3284  -75.7184 O.2       10 UNK        -0.4839 
     25 CA        -70.9087   29.5146  -76.9816 C.3       9 UNK         0.0222 
     26 CB        -69.5807   29.4265  -77.7654 C.3       9 UNK        -0.1966 
     27 N         -71.2403   28.2538  -76.3126 N.am      9 UNK        -0.4218 
     28 C         -70.5114   27.5643  -75.4183 C.2       9 UNK         0.5020 
     29 O         -69.4003   27.9150  -75.0184 O.2       9 UNK        -0.5274 
     30 CA        -71.1038   26.2442  -74.8715 C.3       8 UNK         0.0270 
     31 CB        -71.4611   26.3983  -73.3834 C.3       8 UNK        -0.1976 
     32 N         -72.2872   25.7678  -75.5959 N.am      8 UNK        -0.4313 
     33 C         -72.3076   25.3752  -76.8801 C.2       8 UNK         0.5041 
     34 O         -71.2881   25.1843  -77.5441 O.2       8 UNK        -0.5577 
     35 CA        -73.6815   25.2255  -77.5689 C.3       7 UNK         0.0284 
     36 CB        -74.0047   23.7414  -77.8039 C.3       7 UNK        -0.1958 
     37 N         -74.8008   25.8508  -76.8550 N.am      7 UNK        -0.4454 
     38 C         -74.8996   27.1351  -76.4808 C.2       7 UNK         0.5089 
     39 O         -74.0849   28.0033  -76.7972 O.2       7 UNK        -0.5125 
     40 CA        -76.0487   27.4950  -75.5207 C.3       6 UNK         0.0408 
     41 CB        -77.1984   28.1801  -76.2719 C.3       6 UNK        -0.1791 
     42 N         -76.5701   26.3600  -74.7487 N.am      6 UNK        -0.4762 
     43 C         -75.8656   25.6316  -73.8669 C.2       6 UNK         0.5007 
     44 O         -74.6597   25.7816  -73.6677 O.2       6 UNK        -0.5032 
     45 CA        -76.6391   24.5336  -73.1119 C.3       5 UNK         0.0783 
     46 C46       -77.4615   25.1296  -71.9442 C.3       11 UNK        -0.0857 
     47 S47       -76.5627   25.2790  -70.3636 S.3       11 UNK        -0.2512 
     48 C48       -75.6373   26.8513  -70.5078 C.3       11 UNK         0.0225 
     49 N         -77.5015   23.7889  -74.0327 N.am      5 UNK        -0.4615 
     50 C         -77.0728   22.8586  -74.8917 C.2       4 UNK         0.5053 
     51 O         -75.9058   22.4733  -74.9564 O.2       4 UNK        -0.5105 
     52 CA        -78.1198   22.2693  -75.8536 C.3       4 UNK         0.0263 
     53 CB        -78.9875   21.2202  -75.1398 C.3       4 UNK        -0.1981 
     54 N         -78.9853   23.2653  -76.4981 N.am      4 UNK        -0.4224 
     55 C         -78.5676   24.2949  -77.2457 C.2       3 UNK         0.4895 
     56 O         -77.3818   24.5874  -77.3936 O.2       3 UNK        -0.5091 
     57 CA        -79.6216   25.1494  -77.9760 C.3       3 UNK         0.0250 
     58 CB        -79.8298   24.6362  -79.4142 C.3       3 UNK        -0.1996 
     59 N         -80.9074   25.3364  -77.2882 N.am      3 UNK        -0.4254 
     60 C         -81.8688   24.4436  -77.0185 C.2       2 UNK         0.5004 
     61 O         -81.7600   23.2331  -77.2220 O.2       2 UNK        -0.5226 
     62 CA        -83.1532   25.0104  -76.3801 C.3       2 UNK         0.0269 
     63 CB        -84.3264   24.0144  -76.4378 C.3       2 UNK        -0.1926 
     64 N         -82.9230   25.3859  -74.9856 N.am      2 UNK        -0.4687 
     65 C         -82.2204   26.4487  -74.5655 C.2       1 UNK         0.5165 
     66 O         -81.8076   27.3206  -75.3336 O.2       1 UNK        -0.5079 
     67 H67       -80.2419   22.6249  -71.4650 H         1 UNK         0.0900 
     68 H68       -81.5010   22.0793  -72.5758 H         1 UNK         0.0900 
     69 H69       -81.9358   22.9790  -71.1198 H         1 UNK         0.0900 
     70 H70       -82.5874   25.0531  -71.6853 H         1 UNK         0.2959 
     71 H71       -82.7515   27.0370  -72.6010 H         1 UNK         0.1079 
     72 H72       -79.8446   27.1845  -73.4948 H         1 UNK         0.0837 
     73 H73       -80.1689   26.9407  -71.8089 H         1 UNK         0.0837 
     74 H74       -80.2707   30.4518  -70.6068 H         1 UNK         0.0685 
     75 H75       -80.3607   28.7666  -70.1642 H         1 UNK         0.0685 
     76 H76       -78.3547   27.4212  -70.1965 H         1 UNK         0.1434 
     77 H77       -74.6898   29.0642  -71.7131 H         1 UNK         0.1329 
     78 H78       -78.3473   31.2614  -72.0935 H         1 UNK         0.1335 
     79 H79       -74.7741   31.6347  -71.9623 H         1 UNK         0.0680 
     80 H80       -76.2498   32.3576  -72.5561 H         1 UNK         0.0680 
     81 H81       -74.1450   33.2459  -73.8573 H         1 UNK         0.1032 
     82 H82       -74.1666   32.8553  -75.5433 H         1 UNK         0.1032 
     83 H83       -71.8793   32.8646  -74.7802 H         1 UNK         0.0461 
     84 H84       -71.5194   32.3405  -71.2618 H         1 UNK         0.3453 
     85 H85       -71.9227   33.5407  -72.4600 H         1 UNK         0.3453 
     86 H86       -72.9563   30.3526  -75.7457 H         1 UNK         0.2984 
     87 H87       -71.6997   29.6797  -77.7151 H         1 UNK         0.0554 
     88 H88       -69.5846   28.5851  -78.4583 H         1 UNK         0.0847 
     89 H89       -68.7184   29.3155  -77.1078 H         1 UNK         0.0847 
     90 H90       -69.4198   30.3310  -78.3531 H         1 UNK         0.0847 
     91 H91       -72.1765   27.9113  -76.5133 H         1 UNK         0.3141 
     92 H92       -70.3292   25.4802  -74.9625 H         1 UNK         0.0743 
     93 H93       -72.2263   27.1614  -73.2316 H         1 UNK         0.0784 
     94 H94       -71.8320   25.4632  -72.9630 H         1 UNK         0.0784 
     95 H95       -70.5886   26.6929  -72.7986 H         1 UNK         0.0784 
     96 H96       -73.1718   25.8493  -75.1029 H         1 UNK         0.3213 
     97 H97       -73.6059   25.7188  -78.5399 H         1 UNK         0.0855 
     98 H98       -74.1050   23.1994  -76.8631 H         1 UNK         0.0814 
     99 H99       -73.2157   23.2544  -78.3786 H         1 UNK         0.0814 
    100 H100      -74.9331   23.6191  -78.3622 H         1 UNK         0.0814 
    101 H101      -75.5801   25.2425  -76.6250 H         1 UNK         0.3105 
    102 H102      -75.6472   28.2065  -74.7973 H         1 UNK         0.0547 
    103 H103      -77.6313   27.5251  -77.0265 H         1 UNK         0.0837 
    104 H104      -77.9918   28.4900  -75.5911 H         1 UNK         0.0837 
    105 H105      -76.8448   29.0767  -76.7829 H         1 UNK         0.0837 
    106 H106      -77.5428   26.1285  -74.8850 H         1 UNK         0.3020 
    107 H107      -75.9060   23.8341  -72.7028 H         1 UNK         0.1245 
    108 H108      -78.2904   24.4609  -71.7127 H         1 UNK         0.0781 
    109 H109      -77.9326   26.0696  -72.2269 H         1 UNK         0.0781 
    110 H110      -74.8109   26.6944  -71.2018 H         1 UNK         0.0836 
    111 H111      -75.1774   27.0609  -69.5414 H         1 UNK         0.0836 
    112 H112      -78.4980   24.0080  -74.0077 H         1 UNK         0.3022 
    113 H113      -77.5717   21.7645  -76.6517 H         1 UNK         0.0747 
    114 H114      -79.6518   20.7130  -75.8397 H         1 UNK         0.0793 
    115 H115      -78.3688   20.4555  -74.6680 H         1 UNK         0.0793 
    116 H116      -79.6035   21.6691  -74.3604 H         1 UNK         0.0793 
    117 H117      -79.9868   23.0980  -76.4675 H         1 UNK         0.3047 
    118 H118      -79.1971   26.1503  -78.0560 H         1 UNK         0.0822 
    119 H119      -80.4985   25.2884  -79.9760 H         1 UNK         0.0807 
    120 H120      -80.2487   23.6295  -79.4318 H         1 UNK         0.0807 
    121 H121      -78.8830   24.6007  -79.9552 H         1 UNK         0.0807 
    122 H122      -81.0795   26.2804  -76.9555 H         1 UNK         0.2946 
    123 H123      -83.4406   25.9002  -76.9456 H         1 UNK         0.1144 
    124 H124      -84.1191   23.1086  -75.8664 H         1 UNK         0.0793 
    125 H125      -84.5300   23.7117  -77.4659 H         1 UNK         0.0793 
    126 H126      -85.2419   24.4568  -76.0445 H         1 UNK         0.0793 
    127 H127      -83.1919   24.7055  -74.2898 H         1 UNK         0.2896 
@<TRIPOS>BOND
     1    1    2 1    
     2    1   67 1    
     3    1   68 1    
     4    1   69 1    
     5    2    3 2    
     6    2    4 am   BACKBONE|DICT|INTERRES
     7    4    5 1    
     8    4   70 1    
     9    5    6 1    
    10    5   65 1    
    11    5   71 1    
    12    6    7 1    
    13    6   72 1    
    14    6   73 1    
    15    7    8 1    
    16    8    9 1    
    17    8   74 1    
    18    8   75 1    
    19    9   10 ar   
    20    9   14 ar   
    21   10   11 ar   
    22   10   76 1    
    23   11   12 ar   
    24   11   48 1    
    25   12   13 ar   
    26   12   77 1    
    27   13   14 ar   
    28   13   15 1    
    29   14   78 1    
    30   15   16 1    
    31   15   79 1    
    32   15   80 1    
    33   16   17 1    
    34   17   18 1    
    35   17   81 1    
    36   17   82 1    
    37   18   19 1    
    38   18   22 1    
    39   18   83 1    
    40   19   20 am   BACKBONE|DICT|INTERRES
    41   19   21 2    
    42   20   84 1    
    43   20   85 1    
    44   22   23 am   BACKBONE|DICT|INTERRES
    45   22   86 1    
    46   23   24 2    
    47   23   25 1    
    48   25   26 1    
    49   25   27 1    
    50   25   87 1    
    51   26   88 1    
    52   26   89 1    
    53   26   90 1    
    54   27   28 am   BACKBONE|DICT|INTERRES
    55   27   91 1    
    56   28   29 2    
    57   28   30 1    
    58   30   31 1    
    59   30   32 1    
    60   30   92 1    
    61   31   93 1    
    62   31   94 1    
    63   31   95 1    
    64   32   33 am   BACKBONE|DICT|INTERRES
    65   32   96 1    
    66   33   34 2    
    67   33   35 1    
    68   35   36 1    
    69   35   37 1    
    70   35   97 1    
    71   36   98 1    
    72   36   99 1    
    73   36  100 1    
    74   37   38 am   BACKBONE|DICT|INTERRES
    75   37  101 1    
    76   38   39 2    
    77   38   40 1    
    78   40   41 1    
    79   40   42 1    
    80   40  102 1    
    81   41  103 1    
    82   41  104 1    
    83   41  105 1    
    84   42   43 am   BACKBONE|DICT|INTERRES
    85   42  106 1    
    86   43   44 2    
    87   43   45 1    
    88   45   46 1    
    89   45   49 1    
    90   45  107 1    
    91   46   47 1    
    92   46  108 1    
    93   46  109 1    
    94   47   48 1    
    95   48  110 1    
    96   48  111 1    
    97   49   50 am   BACKBONE|DICT|INTERRES
    98   49  112 1    
    99   50   51 2    
   100   50   52 1    
   101   52   53 1    
   102   52   54 1    
   103   52  113 1    
   104   53  114 1    
   105   53  115 1    
   106   53  116 1    
   107   54   55 am   BACKBONE|DICT|INTERRES
   108   54  117 1    
   109   55   56 2    
   110   55   57 1    
   111   57   58 1    
   112   57   59 1    
   113   57  118 1    
   114   58  119 1    
   115   58  120 1    
   116   58  121 1    
   117   59   60 am   BACKBONE|DICT|INTERRES
   118   59  122 1    
   119   60   61 2    
   120   60   62 1    
   121   62   63 1    
   122   62   64 1    
   123   62  123 1    
   124   63  124 1    
   125   63  125 1    
   126   63  126 1    
   127   64   65 am   BACKBONE|DICT|INTERRES
   128   64  127 1    
   129   65   66 2    
@<TRIPOS>SUBSTRUCTURE
     1 UNK         1 GROUP             0       ****    0 ROOT    
