@<TRIPOS>MOLECULE
3R135
127   129    1
SMALL
USER_CHARGES


@<TRIPOS>ATOM
      1 CA        -85.4379   26.4042  -72.2239 C.3       0 UNK        -0.1998 
      2 C         -84.8515   26.8207  -73.5639 C.2       0 UNK         0.4909 
      3 O         -85.4681   26.5833  -74.6030 O.2       0 UNK        -0.5240 
      4 N         -83.6647   27.4412  -73.5487 N.am      1 UNK        -0.4739 
      5 CA        -82.9305   27.8833  -74.7420 C.3       1 UNK         0.0864 
      6 C6        -81.8720   28.9593  -74.3942 C.3       11 UNK        -0.0881 
      7 S7        -80.6545   28.4074  -73.1531 S.3       11 UNK        -0.2682 
      8 C8        -79.5228   29.8386  -73.1187 C.3       11 UNK         0.0289 
      9 C9        -78.1717   29.5570  -72.4612 C.ar      11 UNK        -0.0687 
     10 C10       -78.0110   28.5620  -71.4883 C.ar      11 UNK        -0.0823 
     11 C11       -76.7605   28.3114  -70.9201 C.ar      11 UNK        -0.0830 
     12 C12       -75.6628   29.0810  -71.3096 C.ar      11 UNK        -0.1021 
     13 C13       -75.8051   30.0870  -72.2688 C.ar      11 UNK        -0.0753 
     14 C14       -77.0623   30.3243  -72.8338 C.ar      11 UNK        -0.0933 
     15 C15       -74.6031   30.9301  -72.6671 C.3       11 UNK         0.0166 
     16 S16       -74.1606   30.7273  -74.4220 S.3       11 UNK        -0.2615 
     17 C17       -72.4935   31.4824  -74.4215 C.3       11 UNK        -0.0865 
     18 CA        -71.3904   30.5746  -75.0421 C.3       10 UNK         0.0862 
     19 C         -69.9830   31.2431  -75.0156 C.2       10 UNK         0.5551 
     20 N         -68.8987   30.4953  -74.8505 N.am      10 UNK        -0.7319 
     21 O         -69.8666   32.4558  -75.1764 O.2       10 UNK        -0.5018 
     22 N         -71.4214   29.1813  -74.5622 N.am      10 UNK        -0.4509 
     23 C         -71.2843   28.7559  -73.2982 C.2       10 UNK         0.4899 
     24 O         -71.0495   29.5047  -72.3493 O.2       10 UNK        -0.4839 
     25 CA        -71.4434   27.2428  -73.0430 C.3       9 UNK         0.0222 
     26 CB        -72.2929   26.9679  -71.7902 C.3       9 UNK        -0.1966 
     27 N         -72.0625   26.5635  -74.1847 N.am      9 UNK        -0.4218 
     28 C         -71.4139   25.8165  -75.0876 C.2       9 UNK         0.5020 
     29 O         -70.2194   25.5262  -75.0115 O.2       9 UNK        -0.5274 
     30 CA        -72.2242   25.3494  -76.3109 C.3       8 UNK         0.0270 
     31 CB        -73.0377   24.0891  -75.9761 C.3       8 UNK        -0.1976 
     32 N         -73.1190   26.3790  -76.8498 N.am      8 UNK        -0.4313 
     33 C         -72.7522   27.5869  -77.2988 C.2       8 UNK         0.5041 
     34 O         -71.5830   27.9695  -77.3294 O.2       8 UNK        -0.5577 
     35 CA        -73.8594   28.5642  -77.7391 C.3       7 UNK         0.0284 
     36 CB        -74.1937   28.3980  -79.2344 C.3       7 UNK        -0.1958 
     37 N         -75.0617   28.5273  -76.8935 N.am      7 UNK        -0.4454 
     38 C         -75.9563   27.5401  -76.7679 C.2       7 UNK         0.5089 
     39 O         -75.9343   26.4995  -77.4268 O.2       7 UNK        -0.5125 
     40 CA        -77.0177   27.7156  -75.6735 C.3       6 UNK         0.0408 
     41 CB        -78.4070   27.8920  -76.3049 C.3       6 UNK        -0.1791 
     42 N         -77.0261   26.5714  -74.7564 N.am      6 UNK        -0.4762 
     43 C         -75.9793   26.1934  -74.0025 C.2       6 UNK         0.5007 
     44 O         -74.8976   26.7835  -74.0016 O.2       6 UNK        -0.5032 
     45 CA        -76.1217   24.9113  -73.1627 C.3       5 UNK         0.0783 
     46 C46       -76.8470   25.1404  -71.8129 C.3       11 UNK        -0.0857 
     47 S47       -75.7109   25.7660  -70.5278 S.3       11 UNK        -0.2512 
     48 C48       -76.6001   27.2157  -69.8770 C.3       11 UNK         0.0225 
     49 N         -76.7506   23.8490  -73.9493 N.am      5 UNK        -0.4615 
     50 C         -76.2549   22.6103  -74.0833 C.2       4 UNK         0.5053 
     51 O         -75.2361   22.2168  -73.5155 O.2       4 UNK        -0.5105 
     52 CA        -77.0110   21.6291  -75.0010 C.3       4 UNK         0.0263 
     53 CB        -77.8627   20.6610  -74.1640 C.3       4 UNK        -0.1981 
     54 N         -77.8723   22.2976  -75.9754 N.am      4 UNK        -0.4224 
     55 C         -77.4420   23.0515  -76.9961 C.2       3 UNK         0.4895 
     56 O         -76.2607   23.1245  -77.3323 O.2       3 UNK        -0.5091 
     57 CA        -78.4982   23.8749  -77.7608 C.3       3 UNK         0.0250 
     58 CB        -78.6419   23.3622  -79.2034 C.3       3 UNK        -0.1996 
     59 N         -79.8296   23.9173  -77.1370 N.am      3 UNK        -0.4254 
     60 C         -80.1284   24.4496  -75.9431 C.2       2 UNK         0.5004 
     61 O         -79.2927   24.9298  -75.1727 O.2       2 UNK        -0.5226 
     62 CA        -81.5942   24.3344  -75.4992 C.3       2 UNK         0.0269 
     63 CB        -81.7523   23.1839  -74.4923 C.3       2 UNK        -0.1926 
     64 N         -82.0909   25.5684  -74.8926 N.am      2 UNK        -0.4687 
     65 C         -82.3282   26.7115  -75.5524 C.2       1 UNK         0.5165 
     66 O         -82.1240   26.8547  -76.7589 O.2       1 UNK        -0.5079 
     67 H67       -85.5778   25.3242  -72.1957 H         1 UNK         0.0900 
     68 H68       -86.4075   26.8778  -72.0755 H         1 UNK         0.0900 
     69 H69       -84.7928   26.6848  -71.3915 H         1 UNK         0.0900 
     70 H70       -83.1974   27.6139  -72.6692 H         1 UNK         0.2959 
     71 H71       -83.6564   28.3564  -75.4072 H         1 UNK         0.1079 
     72 H72       -81.3478   29.2821  -75.2957 H         1 UNK         0.0837 
     73 H73       -82.3707   29.8492  -74.0073 H         1 UNK         0.0837 
     74 H74       -79.3580   30.1722  -74.1435 H         1 UNK         0.0685 
     75 H75       -80.0079   30.6616  -72.5945 H         1 UNK         0.0685 
     76 H76       -78.8572   27.9698  -71.1712 H         1 UNK         0.1434 
     77 H77       -74.6972   28.8944  -70.8611 H         1 UNK         0.1329 
     78 H78       -77.1712   31.1049  -73.5744 H         1 UNK         0.1335 
     79 H79       -74.8157   31.9814  -72.4689 H         1 UNK         0.0680 
     80 H80       -73.7430   30.6648  -72.0501 H         1 UNK         0.0680 
     81 H81       -72.2116   31.7625  -73.4053 H         1 UNK         0.1032 
     82 H82       -72.5590   32.4210  -74.9746 H         1 UNK         0.1032 
     83 H83       -71.6227   30.4967  -76.1041 H         1 UNK         0.0461 
     84 H84       -67.9906   30.9322  -74.8442 H         1 UNK         0.3453 
     85 H85       -68.9835   29.4987  -74.7312 H         1 UNK         0.3453 
     86 H86       -71.5417   28.4895  -75.2919 H         1 UNK         0.2984 
     87 H87       -70.4431   26.8453  -72.8626 H         1 UNK         0.0554 
     88 H88       -72.3814   25.8988  -71.5972 H         1 UNK         0.0847 
     89 H89       -73.3001   27.3687  -71.8985 H         1 UNK         0.0847 
     90 H90       -71.8522   27.4213  -70.9016 H         1 UNK         0.0847 
     91 H91       -73.0617   26.7287  -74.3051 H         1 UNK         0.3141 
     92 H92       -71.5118   25.0963  -77.0986 H         1 UNK         0.0743 
     93 H93       -73.8023   24.2889  -75.2254 H         1 UNK         0.0784 
     94 H94       -73.5366   23.6920  -76.8604 H         1 UNK         0.0784 
     95 H95       -72.3952   23.2992  -75.5848 H         1 UNK         0.0784 
     96 H96       -74.1101   26.1559  -76.8966 H         1 UNK         0.3213 
     97 H97       -73.4517   29.5682  -77.6106 H         1 UNK         0.0855 
     98 H98       -73.3065   28.5602  -79.8477 H         1 UNK         0.0814 
     99 H99       -74.9458   29.1185  -79.5554 H         1 UNK         0.0814 
    100 H100      -74.5644   27.3992  -79.4657 H         1 UNK         0.0814 
    101 H101      -75.1370   29.3003  -76.2433 H         1 UNK         0.3105 
    102 H102      -76.7884   28.6057  -75.0855 H         1 UNK         0.0547 
    103 H103      -78.4560   28.8103  -76.8904 H         1 UNK         0.0837 
    104 H104      -78.6589   27.0676  -76.9715 H         1 UNK         0.0837 
    105 H105      -79.1845   27.9458  -75.5475 H         1 UNK         0.0837 
    106 H106      -77.8778   26.0147  -74.7561 H         1 UNK         0.3020 
    107 H107      -75.0963   24.6060  -72.9394 H         1 UNK         0.1245 
    108 H108      -77.2406   24.1946  -71.4373 H         1 UNK         0.0781 
    109 H109      -77.7151   25.7903  -71.9306 H         1 UNK         0.0781 
    110 H110      -76.0489   27.6119  -69.0231 H         1 UNK         0.0836 
    111 H111      -77.5696   26.8976  -69.4906 H         1 UNK         0.0836 
    112 H112      -77.5937   24.1003  -74.4544 H         1 UNK         0.3022 
    113 H113      -76.2647   21.0495  -75.5484 H         1 UNK         0.0747 
    114 H114      -78.3505   19.9154  -74.7922 H         1 UNK         0.0793 
    115 H115      -77.2455   20.1214  -73.4443 H         1 UNK         0.0793 
    116 H116      -78.6355   21.1859  -73.6009 H         1 UNK         0.0793 
    117 H117      -78.8632   22.2834  -75.7882 H         1 UNK         0.3047 
    118 H118      -78.1220   24.8984  -77.8008 H         1 UNK         0.0822 
    119 H119      -79.3105   23.9960  -79.7861 H         1 UNK         0.0807 
    120 H120      -79.0300   22.3433  -79.2331 H         1 UNK         0.0807 
    121 H121      -77.6784   23.3587  -79.7151 H         1 UNK         0.0807 
    122 H122      -80.5797   23.5193  -77.6844 H         1 UNK         0.2946 
    123 H123      -82.2150   24.1203  -76.3719 H         1 UNK         0.1144 
    124 H124      -81.4296   22.2360  -74.9245 H         1 UNK         0.0793 
    125 H125      -82.7925   23.0613  -74.1899 H         1 UNK         0.0793 
    126 H126      -81.1588   23.3509  -73.5926 H         1 UNK         0.0793 
    127 H127      -82.2512   25.5570  -73.8965 H         1 UNK         0.2896 
@<TRIPOS>BOND
     1    1    2 1    
     2    1   67 1    
     3    1   68 1    
     4    1   69 1    
     5    2    3 2    
     6    2    4 am   BACKBONE|DICT|INTERRES
     7    4    5 1    
     8    4   70 1    
     9    5    6 1    
    10    5   65 1    
    11    5   71 1    
    12    6    7 1    
    13    6   72 1    
    14    6   73 1    
    15    7    8 1    
    16    8    9 1    
    17    8   74 1    
    18    8   75 1    
    19    9   10 ar   
    20    9   14 ar   
    21   10   11 ar   
    22   10   76 1    
    23   11   12 ar   
    24   11   48 1    
    25   12   13 ar   
    26   12   77 1    
    27   13   14 ar   
    28   13   15 1    
    29   14   78 1    
    30   15   16 1    
    31   15   79 1    
    32   15   80 1    
    33   16   17 1    
    34   17   18 1    
    35   17   81 1    
    36   17   82 1    
    37   18   19 1    
    38   18   22 1    
    39   18   83 1    
    40   19   20 am   BACKBONE|DICT|INTERRES
    41   19   21 2    
    42   20   84 1    
    43   20   85 1    
    44   22   23 am   BACKBONE|DICT|INTERRES
    45   22   86 1    
    46   23   24 2    
    47   23   25 1    
    48   25   26 1    
    49   25   27 1    
    50   25   87 1    
    51   26   88 1    
    52   26   89 1    
    53   26   90 1    
    54   27   28 am   BACKBONE|DICT|INTERRES
    55   27   91 1    
    56   28   29 2    
    57   28   30 1    
    58   30   31 1    
    59   30   32 1    
    60   30   92 1    
    61   31   93 1    
    62   31   94 1    
    63   31   95 1    
    64   32   33 am   BACKBONE|DICT|INTERRES
    65   32   96 1    
    66   33   34 2    
    67   33   35 1    
    68   35   36 1    
    69   35   37 1    
    70   35   97 1    
    71   36   98 1    
    72   36   99 1    
    73   36  100 1    
    74   37   38 am   BACKBONE|DICT|INTERRES
    75   37  101 1    
    76   38   39 2    
    77   38   40 1    
    78   40   41 1    
    79   40   42 1    
    80   40  102 1    
    81   41  103 1    
    82   41  104 1    
    83   41  105 1    
    84   42   43 am   BACKBONE|DICT|INTERRES
    85   42  106 1    
    86   43   44 2    
    87   43   45 1    
    88   45   46 1    
    89   45   49 1    
    90   45  107 1    
    91   46   47 1    
    92   46  108 1    
    93   46  109 1    
    94   47   48 1    
    95   48  110 1    
    96   48  111 1    
    97   49   50 am   BACKBONE|DICT|INTERRES
    98   49  112 1    
    99   50   51 2    
   100   50   52 1    
   101   52   53 1    
   102   52   54 1    
   103   52  113 1    
   104   53  114 1    
   105   53  115 1    
   106   53  116 1    
   107   54   55 am   BACKBONE|DICT|INTERRES
   108   54  117 1    
   109   55   56 2    
   110   55   57 1    
   111   57   58 1    
   112   57   59 1    
   113   57  118 1    
   114   58  119 1    
   115   58  120 1    
   116   58  121 1    
   117   59   60 am   BACKBONE|DICT|INTERRES
   118   59  122 1    
   119   60   61 2    
   120   60   62 1    
   121   62   63 1    
   122   62   64 1    
   123   62  123 1    
   124   63  124 1    
   125   63  125 1    
   126   63  126 1    
   127   64   65 am   BACKBONE|DICT|INTERRES
   128   64  127 1    
   129   65   66 2    
@<TRIPOS>SUBSTRUCTURE
     1 UNK         1 GROUP             0       ****    0 ROOT    
