@<TRIPOS>MOLECULE
3R135
127   129    1
SMALL
USER_CHARGES


@<TRIPOS>ATOM
      1 CA        -83.4156   26.9816  -71.1799 C.3       0 UNK        -0.1998 
      2 C         -82.2902   28.0081  -71.0706 C.2       0 UNK         0.4909 
      3 O         -81.9657   28.4275  -69.9615 O.2       0 UNK        -0.5240 
      4 N         -81.6764   28.4607  -72.1735 N.am      1 UNK        -0.4739 
      5 CA        -81.8698   28.0141  -73.5587 C.3       1 UNK         0.0864 
      6 C6        -81.2419   29.0178  -74.5675 C.3       11 UNK        -0.0881 
      7 S7        -79.4131   29.0866  -74.6083 S.3       11 UNK        -0.2682 
      8 C8        -79.0307   30.3279  -73.3269 C.3       11 UNK         0.0289 
      9 C9        -78.0333   29.8026  -72.2996 C.ar      11 UNK        -0.0687 
     10 C10       -78.2202   28.5544  -71.6977 C.ar      11 UNK        -0.0823 
     11 C11       -77.3026   28.0614  -70.7696 C.ar      11 UNK        -0.0830 
     12 C12       -76.1896   28.8332  -70.4280 C.ar      11 UNK        -0.1021 
     13 C13       -75.9943   30.0901  -71.0079 C.ar      11 UNK        -0.0753 
     14 C14       -76.9236   30.5723  -71.9371 C.ar      11 UNK        -0.0933 
     15 C15       -74.7827   30.9239  -70.6168 C.3       11 UNK         0.0166 
     16 S16       -73.3374   30.5553  -71.6628 S.3       11 UNK        -0.2615 
     17 C17       -73.8050   31.3772  -73.2234 C.3       11 UNK        -0.0865 
     18 CA        -74.1611   30.3703  -74.3606 C.3       10 UNK         0.0862 
     19 C         -74.8967   31.0645  -75.5505 C.2       10 UNK         0.5551 
     20 N         -74.7688   30.5880  -76.7817 N.am      10 UNK        -0.7319 
     21 O         -75.6162   32.0420  -75.3579 O.2       10 UNK        -0.5018 
     22 N         -73.0123   29.5252  -74.7460 N.am      10 UNK        -0.4509 
     23 C         -71.8680   29.9679  -75.2871 C.2       10 UNK         0.4899 
     24 O         -71.6677   31.1504  -75.5691 O.2       10 UNK        -0.4839 
     25 CA        -70.7368   28.9645  -75.5891 C.3       9 UNK         0.0222 
     26 CB        -69.4993   29.2462  -74.7120 C.3       9 UNK        -0.1966 
     27 N         -71.0921   27.5404  -75.5562 N.am      9 UNK        -0.4218 
     28 C         -71.4131   26.7579  -74.5174 C.2       9 UNK         0.5020 
     29 O         -71.5185   27.1662  -73.3606 O.2       9 UNK        -0.5274 
     30 CA        -71.6441   25.2624  -74.8377 C.3       8 UNK         0.0270 
     31 CB        -72.1264   24.4623  -73.6135 C.3       8 UNK        -0.1976 
     32 N         -72.5847   25.0572  -75.9453 N.am      8 UNK        -0.4313 
     33 C         -72.3261   25.2763  -77.2421 C.2       8 UNK         0.5041 
     34 O         -71.2179   25.6099  -77.6649 O.2       8 UNK        -0.5577 
     35 CA        -73.5069   25.1866  -78.2215 C.3       7 UNK         0.0284 
     36 CB        -73.7072   23.7406  -78.7011 C.3       7 UNK        -0.1958 
     37 N         -74.7544   25.7105  -77.6562 N.am      7 UNK        -0.4454 
     38 C         -74.9465   26.9859  -77.2832 C.2       7 UNK         0.5089 
     39 O         -74.1095   27.8764  -77.4367 O.2       7 UNK        -0.5125 
     40 CA        -76.2794   27.3171  -76.5861 C.3       6 UNK         0.0408 
     41 CB        -77.4118   27.4677  -77.6125 C.3       6 UNK        -0.1791 
     42 N         -76.6447   26.3191  -75.5795 N.am      6 UNK        -0.4762 
     43 C         -75.9313   26.0672  -74.4702 C.2       6 UNK         0.5007 
     44 O         -74.9432   26.7202  -74.1351 O.2       6 UNK        -0.5032 
     45 CA        -76.3399   24.8310  -73.6432 C.3       5 UNK         0.0783 
     46 C46       -77.3444   25.1627  -72.5115 C.3       11 UNK        -0.0857 
     47 S47       -76.4972   25.4142  -70.9147 S.3       11 UNK        -0.2512 
     48 C48       -77.5208   26.6983  -70.1329 C.3       11 UNK         0.0225 
     49 N         -76.8206   23.7487  -74.5057 N.am      5 UNK        -0.4615 
     50 C         -76.0140   22.9736  -75.2420 C.2       4 UNK         0.5053 
     51 O         -74.7897   23.0964  -75.2696 O.2       4 UNK        -0.5105 
     52 CA        -76.6866   21.8985  -76.1107 C.3       4 UNK         0.0263 
     53 CB        -77.0187   20.6536  -75.2727 C.3       4 UNK        -0.1981 
     54 N         -77.8980   22.3815  -76.7775 N.am      4 UNK        -0.4224 
     55 C         -77.9056   23.3302  -77.7240 C.2       3 UNK         0.4895 
     56 O         -76.8927   23.8867  -78.1432 O.2       3 UNK        -0.5091 
     57 CA        -79.2734   23.7568  -78.2784 C.3       3 UNK         0.0250 
     58 CB        -79.6959   22.8347  -79.4333 C.3       3 UNK        -0.1996 
     59 N         -80.3443   23.8143  -77.2775 N.am      3 UNK        -0.4254 
     60 C         -80.3326   24.5782  -76.1757 C.2       2 UNK         0.5004 
     61 O         -79.3557   25.2355  -75.8109 O.2       2 UNK        -0.5226 
     62 CA        -81.6336   24.5841  -75.3551 C.3       2 UNK         0.0269 
     63 CB        -81.6188   23.4893  -74.2680 C.3       2 UNK        -0.1926 
     64 N         -81.9496   25.9167  -74.8177 N.am      2 UNK        -0.4687 
     65 C         -81.3894   26.5598  -73.7821 C.2       1 UNK         0.5165 
     66 O         -80.5598   26.0643  -73.0168 O.2       1 UNK        -0.5079 
     67 H67       -83.0157   25.9942  -71.4082 H         1 UNK         0.0900 
     68 H68       -84.1407   27.2569  -71.9443 H         1 UNK         0.0900 
     69 H69       -83.9535   26.9089  -70.2348 H         1 UNK         0.0900 
     70 H70       -80.9276   29.1246  -72.0509 H         1 UNK         0.2959 
     71 H71       -82.9454   28.0242  -73.7441 H         1 UNK         0.1079 
     72 H72       -81.5707   28.7677  -75.5777 H         1 UNK         0.0837 
     73 H73       -81.6323   30.0209  -74.3883 H         1 UNK         0.0837 
     74 H74       -78.6360   31.2148  -73.8254 H         1 UNK         0.0685 
     75 H75       -79.9358   30.6459  -72.8096 H         1 UNK         0.0685 
     76 H76       -79.0728   27.9490  -71.9667 H         1 UNK         0.1434 
     77 H77       -75.4723   28.4527  -69.7135 H         1 UNK         0.1329 
     78 H78       -76.7813   31.5456  -72.3850 H         1 UNK         0.1335 
     79 H79       -74.5191   30.7222  -69.5774 H         1 UNK         0.0680 
     80 H80       -75.0167   31.9886  -70.6647 H         1 UNK         0.0680 
     81 H81       -74.6354   32.0532  -73.0213 H         1 UNK         0.1032 
     82 H82       -72.9863   32.0304  -73.5265 H         1 UNK         0.1032 
     83 H83       -74.9007   29.6764  -73.9594 H         1 UNK         0.0461 
     84 H84       -75.2473   31.0485  -77.5383 H         1 UNK         0.3453 
     85 H85       -74.2547   29.7296  -76.9544 H         1 UNK         0.3453 
     86 H86       -73.1014   28.5403  -74.5325 H         1 UNK         0.2984 
     87 H87       -70.4476   29.1541  -76.6238 H         1 UNK         0.0554 
     88 H88       -69.7164   29.1181  -73.6511 H         1 UNK         0.0847 
     89 H89       -69.1502   30.2708  -74.8464 H         1 UNK         0.0847 
     90 H90       -68.6700   28.5870  -74.9685 H         1 UNK         0.0847 
     91 H91       -71.0647   27.0708  -76.4594 H         1 UNK         0.3141 
     92 H92       -70.6773   24.8516  -75.1357 H         1 UNK         0.0743 
     93 H93       -73.0662   24.8536  -73.2245 H         1 UNK         0.0784 
     94 H94       -72.2747   23.4100  -73.8569 H         1 UNK         0.0784 
     95 H95       -71.3961   24.5080  -72.8046 H         1 UNK         0.0784 
     96 H96       -73.5175   24.7510  -75.6914 H         1 UNK         0.3213 
     97 H97       -73.2582   25.8000  -79.0901 H         1 UNK         0.0855 
     98 H98       -74.0012   23.0801  -77.8852 H         1 UNK         0.0814 
     99 H99       -72.7877   23.3405  -79.1304 H         1 UNK         0.0814 
    100 H100      -74.4756   23.6822  -79.4720 H         1 UNK         0.0814 
    101 H101      -75.5266   25.0530  -77.5719 H         1 UNK         0.3105 
    102 H102      -76.1666   28.2702  -76.0672 H         1 UNK         0.0547 
    103 H103      -77.1891   28.2671  -78.3201 H         1 UNK         0.0837 
    104 H104      -77.5615   26.5547  -78.1879 H         1 UNK         0.0837 
    105 H105      -78.3566   27.7153  -77.1289 H         1 UNK         0.0837 
    106 H106      -77.4934   25.7838  -75.7480 H         1 UNK         0.3020 
    107 H107      -75.4215   24.4625  -73.1803 H         1 UNK         0.1245 
    108 H108      -78.0507   24.3440  -72.3642 H         1 UNK         0.0781 
    109 H109      -77.9563   26.0271  -72.7680 H         1 UNK         0.0781 
    110 H110      -77.2718   26.7502  -69.0720 H         1 UNK         0.0836 
    111 H111      -78.5719   26.4079  -70.1845 H         1 UNK         0.0836 
    112 H112      -77.8214   23.6418  -74.5876 H         1 UNK         0.3022 
    113 H113      -75.9727   21.6065  -76.8841 H         1 UNK         0.0747 
    114 H114      -77.4146   19.8507  -75.8950 H         1 UNK         0.0793 
    115 H115      -76.1256   20.2677  -74.7789 H         1 UNK         0.0793 
    116 H116      -77.7528   20.8702  -74.4956 H         1 UNK         0.0793 
    117 H117      -78.7781   21.9783  -76.4912 H         1 UNK         0.3047 
    118 H118      -79.1564   24.7654  -78.6797 H         1 UNK         0.0822 
    119 H119      -80.6053   23.1930  -79.9160 H         1 UNK         0.0807 
    120 H120      -79.8750   21.8140  -79.0928 H         1 UNK         0.0807 
    121 H121      -78.9214   22.7909  -80.2007 H         1 UNK         0.0807 
    122 H122      -81.1790   23.2872  -77.4915 H         1 UNK         0.2946 
    123 H123      -82.4542   24.3534  -76.0369 H         1 UNK         0.1144 
    124 H124      -81.5801   22.4967  -74.7182 H         1 UNK         0.0793 
    125 H125      -82.5155   23.5293  -73.6497 H         1 UNK         0.0793 
    126 H126      -80.7527   23.5735  -73.6108 H         1 UNK         0.0793 
    127 H127      -82.6129   26.4362  -75.3762 H         1 UNK         0.2896 
@<TRIPOS>BOND
     1    1    2 1    
     2    1   67 1    
     3    1   68 1    
     4    1   69 1    
     5    2    3 2    
     6    2    4 am   BACKBONE|DICT|INTERRES
     7    4    5 1    
     8    4   70 1    
     9    5    6 1    
    10    5   65 1    
    11    5   71 1    
    12    6    7 1    
    13    6   72 1    
    14    6   73 1    
    15    7    8 1    
    16    8    9 1    
    17    8   74 1    
    18    8   75 1    
    19    9   10 ar   
    20    9   14 ar   
    21   10   11 ar   
    22   10   76 1    
    23   11   12 ar   
    24   11   48 1    
    25   12   13 ar   
    26   12   77 1    
    27   13   14 ar   
    28   13   15 1    
    29   14   78 1    
    30   15   16 1    
    31   15   79 1    
    32   15   80 1    
    33   16   17 1    
    34   17   18 1    
    35   17   81 1    
    36   17   82 1    
    37   18   19 1    
    38   18   22 1    
    39   18   83 1    
    40   19   20 am   BACKBONE|DICT|INTERRES
    41   19   21 2    
    42   20   84 1    
    43   20   85 1    
    44   22   23 am   BACKBONE|DICT|INTERRES
    45   22   86 1    
    46   23   24 2    
    47   23   25 1    
    48   25   26 1    
    49   25   27 1    
    50   25   87 1    
    51   26   88 1    
    52   26   89 1    
    53   26   90 1    
    54   27   28 am   BACKBONE|DICT|INTERRES
    55   27   91 1    
    56   28   29 2    
    57   28   30 1    
    58   30   31 1    
    59   30   32 1    
    60   30   92 1    
    61   31   93 1    
    62   31   94 1    
    63   31   95 1    
    64   32   33 am   BACKBONE|DICT|INTERRES
    65   32   96 1    
    66   33   34 2    
    67   33   35 1    
    68   35   36 1    
    69   35   37 1    
    70   35   97 1    
    71   36   98 1    
    72   36   99 1    
    73   36  100 1    
    74   37   38 am   BACKBONE|DICT|INTERRES
    75   37  101 1    
    76   38   39 2    
    77   38   40 1    
    78   40   41 1    
    79   40   42 1    
    80   40  102 1    
    81   41  103 1    
    82   41  104 1    
    83   41  105 1    
    84   42   43 am   BACKBONE|DICT|INTERRES
    85   42  106 1    
    86   43   44 2    
    87   43   45 1    
    88   45   46 1    
    89   45   49 1    
    90   45  107 1    
    91   46   47 1    
    92   46  108 1    
    93   46  109 1    
    94   47   48 1    
    95   48  110 1    
    96   48  111 1    
    97   49   50 am   BACKBONE|DICT|INTERRES
    98   49  112 1    
    99   50   51 2    
   100   50   52 1    
   101   52   53 1    
   102   52   54 1    
   103   52  113 1    
   104   53  114 1    
   105   53  115 1    
   106   53  116 1    
   107   54   55 am   BACKBONE|DICT|INTERRES
   108   54  117 1    
   109   55   56 2    
   110   55   57 1    
   111   57   58 1    
   112   57   59 1    
   113   57  118 1    
   114   58  119 1    
   115   58  120 1    
   116   58  121 1    
   117   59   60 am   BACKBONE|DICT|INTERRES
   118   59  122 1    
   119   60   61 2    
   120   60   62 1    
   121   62   63 1    
   122   62   64 1    
   123   62  123 1    
   124   63  124 1    
   125   63  125 1    
   126   63  126 1    
   127   64   65 am   BACKBONE|DICT|INTERRES
   128   64  127 1    
   129   65   66 2    
@<TRIPOS>SUBSTRUCTURE
     1 UNK         1 GROUP             0       ****    0 ROOT    
