@<TRIPOS>MOLECULE
3R135
127   129    1
SMALL
USER_CHARGES


@<TRIPOS>ATOM
      1 CA        -81.8291   22.6917  -70.1520 C.3       0 UNK        -0.1998 
      2 C         -82.2867   23.8541  -71.0205 C.2       0 UNK         0.4909 
      3 O         -83.4236   23.8538  -71.4952 O.2       0 UNK        -0.5240 
      4 N         -81.4133   24.8481  -71.2221 N.am      1 UNK        -0.4739 
      5 CA        -81.6564   26.0180  -72.0756 C.3       1 UNK         0.0864 
      6 C6        -80.6889   27.1834  -71.7510 C.3       11 UNK        -0.0881 
      7 S7        -80.6787   27.6422  -69.9828 S.3       11 UNK        -0.2682 
      8 C8        -79.8520   29.2689  -70.0186 C.3       11 UNK         0.0289 
      9 C9        -78.5985   29.2769  -70.8860 C.ar      11 UNK        -0.0687 
     10 C10       -78.5043   30.1519  -71.9700 C.ar      11 UNK        -0.0823 
     11 C11       -77.3806   30.1447  -72.8004 C.ar      11 UNK        -0.0830 
     12 C12       -76.3427   29.2418  -72.5347 C.ar      11 UNK        -0.1021 
     13 C13       -76.4162   28.3615  -71.4453 C.ar      11 UNK        -0.0753 
     14 C14       -77.5452   28.3978  -70.6224 C.ar      11 UNK        -0.0933 
     15 C15       -75.3378   27.3237  -71.1282 C.3       11 UNK         0.0166 
     16 S16       -73.7440   27.5184  -71.9924 S.3       11 UNK        -0.2615 
     17 C17       -73.0338   28.9920  -71.1794 C.3       11 UNK        -0.0865 
     18 CA        -72.7017   30.1346  -72.1764 C.3       10 UNK         0.0862 
     19 C         -72.1216   31.3693  -71.4256 C.2       10 UNK         0.5551 
     20 N         -70.8838   31.7797  -71.6739 N.am      10 UNK        -0.7319 
     21 O         -72.8109   31.9660  -70.6023 O.2       10 UNK        -0.5018 
     22 N         -71.8884   29.6486  -73.3048 N.am      10 UNK        -0.4509 
     23 C         -71.7508   30.2708  -74.4818 C.2       10 UNK         0.4899 
     24 O         -72.2561   31.3623  -74.7448 O.2       10 UNK        -0.4839 
     25 CA        -70.8948   29.5664  -75.5516 C.3       9 UNK         0.0222 
     26 CB        -69.4709   30.1472  -75.5615 C.3       9 UNK        -0.1966 
     27 N         -70.8194   28.1058  -75.4114 N.am      9 UNK        -0.4218 
     28 C         -71.8464   27.2668  -75.6064 C.2       9 UNK         0.5020 
     29 O         -72.9919   27.6343  -75.8653 O.2       9 UNK        -0.5274 
     30 CA        -71.5328   25.7692  -75.5010 C.3       8 UNK         0.0270 
     31 CB        -71.4555   25.3085  -74.0355 C.3       8 UNK        -0.1976 
     32 N         -72.5727   25.0067  -76.1886 N.am      8 UNK        -0.4313 
     33 C         -72.3629   23.9318  -76.9566 C.2       8 UNK         0.5041 
     34 O         -71.2533   23.4282  -77.1410 O.2       8 UNK        -0.5577 
     35 CA        -73.5889   23.3005  -77.6401 C.3       7 UNK         0.0284 
     36 CB        -74.2603   22.2842  -76.7026 C.3       7 UNK        -0.1958 
     37 N         -74.5856   24.2754  -78.0877 N.am      7 UNK        -0.4454 
     38 C         -74.4049   25.1763  -79.0653 C.2       7 UNK         0.5089 
     39 O         -73.3662   25.2844  -79.7173 O.2       7 UNK        -0.5125 
     40 CA        -75.5809   26.1219  -79.3593 C.3       6 UNK         0.0408 
     41 CB        -76.6092   25.4539  -80.2872 C.3       6 UNK        -0.1791 
     42 N         -76.2244   26.5347  -78.1103 N.am      6 UNK        -0.4762 
     43 C         -75.9058   27.6491  -77.4345 C.2       6 UNK         0.5007 
     44 O         -75.1940   28.5347  -77.9100 O.2       6 UNK        -0.5032 
     45 CA        -76.4715   27.8175  -76.0029 C.3       5 UNK         0.0783 
     46 C46       -77.4068   29.0514  -75.8920 C.3       11 UNK        -0.0857 
     47 S47       -76.4658   30.5551  -75.4589 S.3       11 UNK        -0.2512 
     48 C48       -77.3188   31.1435  -73.9568 C.3       11 UNK         0.0225 
     49 N         -77.1259   26.6039  -75.5042 N.am      5 UNK        -0.4615 
     50 C         -76.4798   25.5449  -74.9926 C.2       4 UNK         0.5053 
     51 O         -75.2577   25.4763  -74.8782 O.2       4 UNK        -0.5105 
     52 CA        -77.3354   24.3198  -74.6135 C.3       4 UNK         0.0263 
     53 CB        -77.7869   24.4084  -73.1488 C.3       4 UNK        -0.1981 
     54 N         -78.5019   24.1433  -75.4863 N.am      4 UNK        -0.4224 
     55 C         -78.4142   23.9635  -76.8135 C.2       3 UNK         0.4895 
     56 O         -77.3403   23.8286  -77.3998 O.2       3 UNK        -0.5091 
     57 CA        -79.7050   24.0013  -77.6503 C.3       3 UNK         0.0250 
     58 CB        -80.1168   22.5783  -78.0584 C.3       3 UNK        -0.1996 
     59 N         -80.8429   24.6671  -77.0107 N.am      3 UNK        -0.4254 
     60 C         -80.8864   25.9324  -76.5666 C.2       2 UNK         0.5004 
     61 O         -79.9366   26.7162  -76.6231 O.2       2 UNK        -0.5226 
     62 CA        -82.2008   26.3852  -75.8972 C.3       2 UNK         0.0269 
     63 CB        -83.4136   25.4883  -76.2358 C.3       2 UNK        -0.1926 
     64 N         -82.0862   26.5243  -74.4377 N.am      2 UNK        -0.4687 
     65 C         -81.5704   25.6376  -73.5708 C.2       1 UNK         0.5165 
     66 O         -81.0284   24.5800  -73.9090 O.2       1 UNK        -0.5079 
     67 H67       -82.4858   22.5864  -69.2888 H         1 UNK         0.0900 
     68 H68       -80.8110   22.8307  -69.7886 H         1 UNK         0.0900 
     69 H69       -81.8618   21.7634  -70.7216 H         1 UNK         0.0900 
     70 H70       -80.4936   24.7959  -70.8099 H         1 UNK         0.2959 
     71 H71       -82.6761   26.3612  -71.8853 H         1 UNK         0.1079 
     72 H72       -80.9534   28.0704  -72.3298 H         1 UNK         0.0837 
     73 H73       -79.6688   26.9276  -72.0384 H         1 UNK         0.0837 
     74 H74       -80.5694   30.0129  -70.3681 H         1 UNK         0.0685 
     75 H75       -79.5847   29.5538  -69.0002 H         1 UNK         0.0685 
     76 H76       -79.3138   30.8406  -72.1712 H         1 UNK         0.1434 
     77 H77       -75.4836   29.2230  -73.1878 H         1 UNK         0.1329 
     78 H78       -77.6222   27.7158  -69.7864 H         1 UNK         0.1335 
     79 H79       -75.1479   27.3072  -70.0538 H         1 UNK         0.0680 
     80 H80       -75.7336   26.3405  -71.3844 H         1 UNK         0.0680 
     81 H81       -72.1344   28.6806  -70.6451 H         1 UNK         0.1032 
     82 H82       -73.7280   29.3496  -70.4163 H         1 UNK         0.1032 
     83 H83       -73.6461   30.4788  -72.6005 H         1 UNK         0.0461 
     84 H84       -70.3154   31.2987  -72.3518 H         1 UNK         0.3453 
     85 H85       -70.5196   32.5816  -71.1838 H         1 UNK         0.3453 
     86 H86       -71.4527   28.7476  -73.1809 H         1 UNK         0.2984 
     87 H87       -71.3529   29.7806  -76.5197 H         1 UNK         0.0554 
     88 H88       -68.8804   29.7392  -76.3820 H         1 UNK         0.0847 
     89 H89       -68.9419   29.9406  -74.6303 H         1 UNK         0.0847 
     90 H90       -69.4918   31.2305  -75.6902 H         1 UNK         0.0847 
     91 H91       -69.9113   27.7185  -75.1973 H         1 UNK         0.3141 
     92 H92       -70.5670   25.6012  -75.9824 H         1 UNK         0.0743 
     93 H93       -71.1349   24.2689  -73.9676 H         1 UNK         0.0784 
     94 H94       -70.7444   25.9056  -73.4636 H         1 UNK         0.0784 
     95 H95       -72.4251   25.3876  -73.5430 H         1 UNK         0.0784 
     96 H96       -73.5141   25.3741  -76.0738 H         1 UNK         0.3213 
     97 H97       -73.2337   22.7654  -78.5234 H         1 UNK         0.0855 
     98 H98       -73.5564   21.5068  -76.4027 H         1 UNK         0.0814 
     99 H99       -75.1032   21.7906  -77.1869 H         1 UNK         0.0814 
    100 H100      -74.6271   22.7597  -75.7925 H         1 UNK         0.0814 
    101 H101      -75.5075   24.2045  -77.6658 H         1 UNK         0.3105 
    102 H102      -75.1869   26.9946  -79.8842 H         1 UNK         0.0547 
    103 H103      -76.1566   25.2076  -81.2485 H         1 UNK         0.0837 
    104 H104      -77.0027   24.5266  -79.8717 H         1 UNK         0.0837 
    105 H105      -77.4517   26.1160  -80.4867 H         1 UNK         0.0837 
    106 H106      -76.8148   25.8474  -77.6589 H         1 UNK         0.3020 
    107 H107      -75.6021   27.9856  -75.3617 H         1 UNK         0.1245 
    108 H108      -78.1658   28.8861  -75.1258 H         1 UNK         0.0781 
    109 H109      -77.9654   29.2245  -76.8141 H         1 UNK         0.0781 
    110 H110      -78.3257   31.4502  -74.2446 H         1 UNK         0.0836 
    111 H111      -76.8136   32.0438  -73.6052 H         1 UNK         0.0836 
    112 H112      -78.1315   26.5583  -75.6355 H         1 UNK         0.3022 
    113 H113      -76.7099   23.4317  -74.7211 H         1 UNK         0.0747 
    114 H114      -78.3830   23.5421  -72.8610 H         1 UNK         0.0793 
    115 H115      -76.9271   24.4496  -72.4792 H         1 UNK         0.0793 
    116 H116      -78.3834   25.3012  -72.9698 H         1 UNK         0.0793 
    117 H117      -79.4189   24.2481  -75.0600 H         1 UNK         0.3047 
    118 H118      -79.4744   24.5634  -78.5576 H         1 UNK         0.0822 
    119 H119      -80.9632   22.5901  -78.7454 H         1 UNK         0.0807 
    120 H120      -80.3928   21.9748  -77.1927 H         1 UNK         0.0807 
    121 H121      -79.2986   22.0648  -78.5661 H         1 UNK         0.0807 
    122 H122      -81.6658   24.0995  -76.8692 H         1 UNK         0.2946 
    123 H123      -82.4059   27.3807  -76.2950 H         1 UNK         0.1144 
    124 H124      -83.5343   25.3724  -77.3140 H         1 UNK         0.0793 
    125 H125      -84.3377   25.9289  -75.8613 H         1 UNK         0.0793 
    126 H126      -83.3283   24.4932  -75.7972 H         1 UNK         0.0793 
    127 H127      -82.4641   27.3839  -74.0638 H         1 UNK         0.2896 
@<TRIPOS>BOND
     1    1    2 1    
     2    1   67 1    
     3    1   68 1    
     4    1   69 1    
     5    2    3 2    
     6    2    4 am   BACKBONE|DICT|INTERRES
     7    4    5 1    
     8    4   70 1    
     9    5    6 1    
    10    5   65 1    
    11    5   71 1    
    12    6    7 1    
    13    6   72 1    
    14    6   73 1    
    15    7    8 1    
    16    8    9 1    
    17    8   74 1    
    18    8   75 1    
    19    9   10 ar   
    20    9   14 ar   
    21   10   11 ar   
    22   10   76 1    
    23   11   12 ar   
    24   11   48 1    
    25   12   13 ar   
    26   12   77 1    
    27   13   14 ar   
    28   13   15 1    
    29   14   78 1    
    30   15   16 1    
    31   15   79 1    
    32   15   80 1    
    33   16   17 1    
    34   17   18 1    
    35   17   81 1    
    36   17   82 1    
    37   18   19 1    
    38   18   22 1    
    39   18   83 1    
    40   19   20 am   BACKBONE|DICT|INTERRES
    41   19   21 2    
    42   20   84 1    
    43   20   85 1    
    44   22   23 am   BACKBONE|DICT|INTERRES
    45   22   86 1    
    46   23   24 2    
    47   23   25 1    
    48   25   26 1    
    49   25   27 1    
    50   25   87 1    
    51   26   88 1    
    52   26   89 1    
    53   26   90 1    
    54   27   28 am   BACKBONE|DICT|INTERRES
    55   27   91 1    
    56   28   29 2    
    57   28   30 1    
    58   30   31 1    
    59   30   32 1    
    60   30   92 1    
    61   31   93 1    
    62   31   94 1    
    63   31   95 1    
    64   32   33 am   BACKBONE|DICT|INTERRES
    65   32   96 1    
    66   33   34 2    
    67   33   35 1    
    68   35   36 1    
    69   35   37 1    
    70   35   97 1    
    71   36   98 1    
    72   36   99 1    
    73   36  100 1    
    74   37   38 am   BACKBONE|DICT|INTERRES
    75   37  101 1    
    76   38   39 2    
    77   38   40 1    
    78   40   41 1    
    79   40   42 1    
    80   40  102 1    
    81   41  103 1    
    82   41  104 1    
    83   41  105 1    
    84   42   43 am   BACKBONE|DICT|INTERRES
    85   42  106 1    
    86   43   44 2    
    87   43   45 1    
    88   45   46 1    
    89   45   49 1    
    90   45  107 1    
    91   46   47 1    
    92   46  108 1    
    93   46  109 1    
    94   47   48 1    
    95   48  110 1    
    96   48  111 1    
    97   49   50 am   BACKBONE|DICT|INTERRES
    98   49  112 1    
    99   50   51 2    
   100   50   52 1    
   101   52   53 1    
   102   52   54 1    
   103   52  113 1    
   104   53  114 1    
   105   53  115 1    
   106   53  116 1    
   107   54   55 am   BACKBONE|DICT|INTERRES
   108   54  117 1    
   109   55   56 2    
   110   55   57 1    
   111   57   58 1    
   112   57   59 1    
   113   57  118 1    
   114   58  119 1    
   115   58  120 1    
   116   58  121 1    
   117   59   60 am   BACKBONE|DICT|INTERRES
   118   59  122 1    
   119   60   61 2    
   120   60   62 1    
   121   62   63 1    
   122   62   64 1    
   123   62  123 1    
   124   63  124 1    
   125   63  125 1    
   126   63  126 1    
   127   64   65 am   BACKBONE|DICT|INTERRES
   128   64  127 1    
   129   65   66 2    
@<TRIPOS>SUBSTRUCTURE
     1 UNK         1 GROUP             0       ****    0 ROOT    
