@<TRIPOS>MOLECULE
3R135
127   129    1
SMALL
USER_CHARGES


@<TRIPOS>ATOM
      1 CA        -81.6326   27.7885  -70.3931 C.3       0 UNK        -0.1998 
      2 C         -81.3633   27.3897  -71.8354 C.2       0 UNK         0.4909 
      3 O         -80.4109   26.6556  -72.0925 O.2       0 UNK        -0.5240 
      4 N         -82.2032   27.8560  -72.7702 N.am      1 UNK        -0.4739 
      5 CA        -82.1343   27.7021  -74.2362 C.3       1 UNK         0.0864 
      6 C6        -80.8559   28.3039  -74.8808 C.3       11 UNK        -0.0881 
      7 S7        -80.5599   30.0534  -74.4473 S.3       11 UNK        -0.2682 
      8 C8        -78.7592   30.1833  -74.7046 C.3       11 UNK         0.0289 
      9 C9        -77.9727   30.0657  -73.4046 C.ar      11 UNK        -0.0687 
     10 C10       -77.9253   28.8545  -72.7097 C.ar      11 UNK        -0.0823 
     11 C11       -77.2115   28.7407  -71.5141 C.ar      11 UNK        -0.0830 
     12 C12       -76.5160   29.8510  -71.0236 C.ar      11 UNK        -0.1021 
     13 C13       -76.5509   31.0700  -71.7086 C.ar      11 UNK        -0.0753 
     14 C14       -77.2829   31.1708  -72.8962 C.ar      11 UNK        -0.0933 
     15 C15       -75.8406   32.2947  -71.1485 C.3       11 UNK         0.0166 
     16 S16       -74.3063   32.6759  -72.0496 S.3       11 UNK        -0.2615 
     17 C17       -73.1286   31.5187  -71.2707 C.3       11 UNK        -0.0865 
     18 CA        -71.8328   31.3393  -72.1159 C.3       10 UNK         0.0862 
     19 C         -70.7054   30.5890  -71.3400 C.2       10 UNK         0.5551 
     20 N         -69.8873   29.7683  -71.9879 N.am      10 UNK        -0.7319 
     21 O         -70.5420   30.7826  -70.1375 O.2       10 UNK        -0.5018 
     22 N         -72.1072   30.8316  -73.4738 N.am      10 UNK        -0.4509 
     23 C         -72.6063   29.6264  -73.7783 C.2       10 UNK         0.4899 
     24 O         -72.8627   28.7621  -72.9377 O.2       10 UNK        -0.4839 
     25 CA        -72.8923   29.3471  -75.2676 C.3       9 UNK         0.0222 
     26 CB        -72.0884   30.2251  -76.2545 C.3       9 UNK        -0.1966 
     27 N         -72.7517   27.9239  -75.5813 N.am      9 UNK        -0.4218 
     28 C         -71.6353   27.1821  -75.5610 C.2       9 UNK         0.5020 
     29 O         -70.5064   27.6321  -75.3555 O.2       9 UNK        -0.5274 
     30 CA        -71.8048   25.6700  -75.8033 C.3       8 UNK         0.0270 
     31 CB        -72.0081   24.9377  -74.4673 C.3       8 UNK        -0.1976 
     32 N         -72.9063   25.3391  -76.7149 N.am      8 UNK        -0.4313 
     33 C         -72.9079   25.6076  -78.0291 C.2       8 UNK         0.5041 
     34 O         -71.9608   26.1246  -78.6236 O.2       8 UNK        -0.5577 
     35 CA        -74.1782   25.2442  -78.8179 C.3       7 UNK         0.0284 
     36 CB        -74.1962   23.7475  -79.1681 C.3       7 UNK        -0.1958 
     37 N         -75.4076   25.6050  -78.1082 N.am      7 UNK        -0.4454 
     38 C         -75.8115   26.8648  -77.8869 C.2       7 UNK         0.5089 
     39 O         -75.2309   27.8581  -78.3246 O.2       7 UNK        -0.5125 
     40 CA        -77.0549   27.0555  -76.9987 C.3       6 UNK         0.0408 
     41 CB        -78.3432   26.9095  -77.8218 C.3       6 UNK        -0.1791 
     42 N         -77.0890   26.1395  -75.8550 N.am      6 UNK        -0.4762 
     43 C         -76.1639   26.1085  -74.8840 C.2       6 UNK         0.5007 
     44 O         -75.2284   26.9013  -74.8225 O.2       6 UNK        -0.5032 
     45 CA        -76.2363   24.9555  -73.8653 C.3       5 UNK         0.0783 
     46 C46       -77.0709   25.3069  -72.6107 C.3       11 UNK        -0.0857 
     47 S47       -76.0689   26.2019  -71.3710 S.3       11 UNK        -0.2512 
     48 C48       -77.2361   27.4384  -70.7241 C.3       11 UNK         0.0225 
     49 N         -76.6709   23.7095  -74.5011 N.am      5 UNK        -0.4615 
     50 C         -75.8899   22.9854  -75.3143 C.2       4 UNK         0.5053 
     51 O         -74.7332   23.2943  -75.6013 O.2       4 UNK        -0.5105 
     52 CA        -76.5126   21.7250  -75.9355 C.3       4 UNK         0.0263 
     53 CB        -76.5150   20.5654  -74.9268 C.3       4 UNK        -0.1981 
     54 N         -77.8717   21.9520  -76.4317 N.am      4 UNK        -0.4224 
     55 C         -78.1719   22.7617  -77.4567 C.2       3 UNK         0.4895 
     56 O         -77.3328   23.3859  -78.1054 O.2       3 UNK        -0.5091 
     57 CA        -79.6627   22.9342  -77.7950 C.3       3 UNK         0.0250 
     58 CB        -80.1358   21.8077  -78.7276 C.3       3 UNK        -0.1996 
     59 N         -80.5520   23.0141  -76.6285 N.am      3 UNK        -0.4254 
     60 C         -80.4394   23.9079  -75.6363 C.2       2 UNK         0.5004 
     61 O         -79.4945   24.6927  -75.5221 O.2       2 UNK        -0.5226 
     62 CA        -81.5491   23.9102  -74.5732 C.3       2 UNK         0.0269 
     63 CB        -81.1630   22.9997  -73.3967 C.3       2 UNK        -0.1926 
     64 N         -81.7485   25.2693  -74.0733 N.am      2 UNK        -0.4687 
     65 C         -82.3383   26.2590  -74.7526 C.2       1 UNK         0.5165 
     66 O         -83.0011   26.0737  -75.7747 O.2       1 UNK        -0.5079 
     67 H67       -81.7876   26.9003  -69.7813 H         1 UNK         0.0900 
     68 H68       -82.5135   28.4234  -70.3018 H         1 UNK         0.0900 
     69 H69       -80.7779   28.3337  -69.9932 H         1 UNK         0.0900 
     70 H70       -82.9783   28.4252  -72.4597 H         1 UNK         0.2959 
     71 H71       -82.9829   28.2726  -74.6177 H         1 UNK         0.1079 
     72 H72       -80.9321   28.2566  -75.9687 H         1 UNK         0.0837 
     73 H73       -79.9839   27.7031  -74.6217 H         1 UNK         0.0837 
     74 H74       -78.5528   31.1407  -75.1853 H         1 UNK         0.0685 
     75 H75       -78.4259   29.4192  -75.4059 H         1 UNK         0.0685 
     76 H76       -78.4624   28.0018  -73.0900 H         1 UNK         0.1434 
     77 H77       -75.9642   29.7723  -70.0968 H         1 UNK         0.1329 
     78 H78       -77.3146   32.1153  -73.4221 H         1 UNK         0.1335 
     79 H79       -76.5074   33.1554  -71.2187 H         1 UNK         0.0680 
     80 H80       -75.6216   32.1689  -70.0869 H         1 UNK         0.0680 
     81 H81       -73.6143   30.5556  -71.1071 H         1 UNK         0.1032 
     82 H82       -72.8940   31.9121  -70.2800 H         1 UNK         0.1032 
     83 H83       -71.4188   32.3362  -72.2713 H         1 UNK         0.0461 
     84 H84       -70.0202   29.5887  -72.9709 H         1 UNK         0.3453 
     85 H85       -69.1538   29.2983  -71.4815 H         1 UNK         0.3453 
     86 H86       -71.9148   31.4766  -74.2258 H         1 UNK         0.2984 
     87 H87       -73.9496   29.5719  -75.4153 H         1 UNK         0.0554 
     88 H88       -72.3698   31.2754  -76.1735 H         1 UNK         0.0847 
     89 H89       -72.2799   29.9277  -77.2858 H         1 UNK         0.0847 
     90 H90       -71.0134   30.1546  -76.0851 H         1 UNK         0.0847 
     91 H91       -73.6373   27.4226  -75.6087 H         1 UNK         0.3141 
     92 H92       -70.8797   25.3031  -76.2529 H         1 UNK         0.0743 
     93 H93       -72.9071   25.2811  -73.9550 H         1 UNK         0.0784 
     94 H94       -72.0914   23.8601  -74.6105 H         1 UNK         0.0784 
     95 H95       -71.1662   25.1128  -73.7961 H         1 UNK         0.0784 
     96 H96       -73.6968   24.8382  -76.3188 H         1 UNK         0.3213 
     97 H97       -74.1563   25.8070  -79.7537 H         1 UNK         0.0855 
     98 H98       -74.2536   23.1218  -78.2771 H         1 UNK         0.0814 
     99 H99       -73.2935   23.4625  -79.7101 H         1 UNK         0.0814 
    100 H100      -75.0471   23.5005  -79.8032 H         1 UNK         0.0814 
    101 H101      -75.9927   24.8405  -77.7838 H         1 UNK         0.3105 
    102 H102      -77.0165   28.0709  -76.6022 H         1 UNK         0.0547 
    103 H103      -78.3753   27.6434  -78.6279 H         1 UNK         0.0837 
    104 H104      -78.4200   25.9225  -78.2771 H         1 UNK         0.0837 
    105 H105      -79.2290   27.0613  -77.2066 H         1 UNK         0.0837 
    106 H106      -77.8672   25.4823  -75.8126 H         1 UNK         0.3020 
    107 H107      -75.2107   24.7792  -73.5326 H         1 UNK         0.1245 
    108 H108      -77.9747   25.8561  -72.8731 H         1 UNK         0.0781 
    109 H109      -77.4179   24.3947  -72.1229 H         1 UNK         0.0781 
    110 H110      -78.2442   27.0245  -70.7034 H         1 UNK         0.0836 
    111 H111      -76.9795   27.6351  -69.6821 H         1 UNK         0.0836 
    112 H112      -77.6350   23.4403  -74.3711 H         1 UNK         0.3022 
    113 H113      -75.8900   21.4351  -76.7849 H         1 UNK         0.0747 
    114 H114      -76.8717   19.6426  -75.3848 H         1 UNK         0.0793 
    115 H115      -75.5079   20.3716  -74.5546 H         1 UNK         0.0793 
    116 H116      -77.1463   20.7778  -74.0631 H         1 UNK         0.0793 
    117 H117      -78.6253   21.4802  -75.9536 H         1 UNK         0.3047 
    118 H118      -79.7606   23.8785  -78.3340 H         1 UNK         0.0822 
    119 H119      -80.1114   20.8353  -78.2340 H         1 UNK         0.0807 
    120 H120      -79.5001   21.7403  -79.6118 H         1 UNK         0.0807 
    121 H121      -81.1536   21.9821  -79.0772 H         1 UNK         0.0807 
    122 H122      -81.3476   22.3917  -76.6308 H         1 UNK         0.2946 
    123 H123      -82.4808   23.5543  -75.0187 H         1 UNK         0.1144 
    124 H124      -81.9426   22.9876  -72.6347 H         1 UNK         0.0793 
    125 H125      -80.2373   23.3272  -72.9210 H         1 UNK         0.0793 
    126 H126      -81.0168   21.9704  -73.7267 H         1 UNK         0.0793 
    127 H127      -81.1752   25.5535  -73.2807 H         1 UNK         0.2896 
@<TRIPOS>BOND
     1    1    2 1    
     2    1   67 1    
     3    1   68 1    
     4    1   69 1    
     5    2    3 2    
     6    2    4 am   BACKBONE|DICT|INTERRES
     7    4    5 1    
     8    4   70 1    
     9    5    6 1    
    10    5   65 1    
    11    5   71 1    
    12    6    7 1    
    13    6   72 1    
    14    6   73 1    
    15    7    8 1    
    16    8    9 1    
    17    8   74 1    
    18    8   75 1    
    19    9   10 ar   
    20    9   14 ar   
    21   10   11 ar   
    22   10   76 1    
    23   11   12 ar   
    24   11   48 1    
    25   12   13 ar   
    26   12   77 1    
    27   13   14 ar   
    28   13   15 1    
    29   14   78 1    
    30   15   16 1    
    31   15   79 1    
    32   15   80 1    
    33   16   17 1    
    34   17   18 1    
    35   17   81 1    
    36   17   82 1    
    37   18   19 1    
    38   18   22 1    
    39   18   83 1    
    40   19   20 am   BACKBONE|DICT|INTERRES
    41   19   21 2    
    42   20   84 1    
    43   20   85 1    
    44   22   23 am   BACKBONE|DICT|INTERRES
    45   22   86 1    
    46   23   24 2    
    47   23   25 1    
    48   25   26 1    
    49   25   27 1    
    50   25   87 1    
    51   26   88 1    
    52   26   89 1    
    53   26   90 1    
    54   27   28 am   BACKBONE|DICT|INTERRES
    55   27   91 1    
    56   28   29 2    
    57   28   30 1    
    58   30   31 1    
    59   30   32 1    
    60   30   92 1    
    61   31   93 1    
    62   31   94 1    
    63   31   95 1    
    64   32   33 am   BACKBONE|DICT|INTERRES
    65   32   96 1    
    66   33   34 2    
    67   33   35 1    
    68   35   36 1    
    69   35   37 1    
    70   35   97 1    
    71   36   98 1    
    72   36   99 1    
    73   36  100 1    
    74   37   38 am   BACKBONE|DICT|INTERRES
    75   37  101 1    
    76   38   39 2    
    77   38   40 1    
    78   40   41 1    
    79   40   42 1    
    80   40  102 1    
    81   41  103 1    
    82   41  104 1    
    83   41  105 1    
    84   42   43 am   BACKBONE|DICT|INTERRES
    85   42  106 1    
    86   43   44 2    
    87   43   45 1    
    88   45   46 1    
    89   45   49 1    
    90   45  107 1    
    91   46   47 1    
    92   46  108 1    
    93   46  109 1    
    94   47   48 1    
    95   48  110 1    
    96   48  111 1    
    97   49   50 am   BACKBONE|DICT|INTERRES
    98   49  112 1    
    99   50   51 2    
   100   50   52 1    
   101   52   53 1    
   102   52   54 1    
   103   52  113 1    
   104   53  114 1    
   105   53  115 1    
   106   53  116 1    
   107   54   55 am   BACKBONE|DICT|INTERRES
   108   54  117 1    
   109   55   56 2    
   110   55   57 1    
   111   57   58 1    
   112   57   59 1    
   113   57  118 1    
   114   58  119 1    
   115   58  120 1    
   116   58  121 1    
   117   59   60 am   BACKBONE|DICT|INTERRES
   118   59  122 1    
   119   60   61 2    
   120   60   62 1    
   121   62   63 1    
   122   62   64 1    
   123   62  123 1    
   124   63  124 1    
   125   63  125 1    
   126   63  126 1    
   127   64   65 am   BACKBONE|DICT|INTERRES
   128   64  127 1    
   129   65   66 2    
@<TRIPOS>SUBSTRUCTURE
     1 UNK         1 GROUP             0       ****    0 ROOT    
