@<TRIPOS>MOLECULE
3R135
127   129    1
SMALL
USER_CHARGES


@<TRIPOS>ATOM
      1 CA        -77.4266   26.2122  -71.3186 C.3       0 UNK        -0.1998 
      2 C         -78.8607   26.2384  -71.8213 C.2       0 UNK         0.4909 
      3 O         -79.1128   26.6881  -72.9376 O.2       0 UNK        -0.5240 
      4 N         -79.7953   25.7532  -70.9922 N.am      1 UNK        -0.4739 
      5 CA        -81.2558   25.8719  -71.1487 C.3       1 UNK         0.0864 
      6 C6        -81.7548   27.3400  -71.0356 C.3       11 UNK        -0.0881 
      7 S7        -81.1832   28.1725  -69.5134 S.3       11 UNK        -0.2682 
      8 C8        -81.2038   29.9208  -70.0211 C.3       11 UNK         0.0289 
      9 C9        -80.0792   30.2673  -70.9891 C.ar      11 UNK        -0.0687 
     10 C10       -80.3408   30.4082  -72.3555 C.ar      11 UNK        -0.0823 
     11 C11       -79.3267   30.7763  -73.2455 C.ar      11 UNK        -0.0830 
     12 C12       -78.0403   31.0187  -72.7488 C.ar      11 UNK        -0.1021 
     13 C13       -77.7611   30.8687  -71.3874 C.ar      11 UNK        -0.0753 
     14 C14       -78.7844   30.4917  -70.5124 C.ar      11 UNK        -0.0933 
     15 C15       -76.3618   31.1407  -70.8547 C.3       11 UNK         0.0166 
     16 S16       -75.4226   29.6013  -70.6158 S.3       11 UNK        -0.2615 
     17 C17       -75.0184   29.1204  -72.3320 C.3       11 UNK        -0.0865 
     18 CA        -73.5027   28.9019  -72.5682 C.3       10 UNK         0.0862 
     19 C         -72.9760   27.6439  -71.8254 C.2       10 UNK         0.5551 
     20 N         -73.0853   26.4576  -72.4104 N.am      10 UNK        -0.7319 
     21 O         -72.4469   27.7462  -70.7214 O.2       10 UNK        -0.5018 
     22 N         -73.1972   28.8343  -74.0056 N.am      10 UNK        -0.4509 
     23 C         -72.1765   29.4676  -74.5963 C.2       10 UNK         0.4899 
     24 O         -71.4749   30.3114  -74.0350 O.2       10 UNK        -0.4839 
     25 CA        -71.8818   29.0732  -76.0593 C.3       9 UNK         0.0222 
     26 CB        -70.5622   29.6732  -76.5907 C.3       9 UNK        -0.1966 
     27 N         -71.9136   27.6205  -76.2817 N.am      9 UNK        -0.4218 
     28 C         -71.1712   26.6874  -75.6612 C.2       9 UNK         0.5020 
     29 O         -70.3137   26.9459  -74.8157 O.2       9 UNK        -0.5274 
     30 CA        -71.4020   25.2156  -76.0493 C.3       8 UNK         0.0270 
     31 CB        -71.6656   24.3257  -74.8205 C.3       8 UNK        -0.1976 
     32 N         -72.5023   25.0412  -77.0023 N.am      8 UNK        -0.4313 
     33 C         -72.4048   24.3729  -78.1587 C.2       8 UNK         0.5041 
     34 O         -71.3653   23.8539  -78.5682 O.2       8 UNK        -0.5577 
     35 CA        -73.6793   24.2438  -79.0081 C.3       7 UNK         0.0284 
     36 CB        -74.4013   22.9215  -78.6991 C.3       7 UNK        -0.1958 
     37 N         -74.6195   25.3578  -78.8588 N.am      7 UNK        -0.4454 
     38 C         -74.4121   26.5934  -79.3357 C.2       7 UNK         0.5089 
     39 O         -73.3509   26.9664  -79.8347 O.2       7 UNK        -0.5125 
     40 CA        -75.5871   27.5759  -79.2491 C.3       6 UNK         0.0408 
     41 CB        -76.6197   27.2727  -80.3470 C.3       6 UNK        -0.1791 
     42 N         -76.2409   27.5126  -77.9432 N.am      6 UNK        -0.4762 
     43 C         -76.0353   28.3864  -76.9482 C.2       6 UNK         0.5007 
     44 O         -75.2548   29.3351  -77.0192 O.2       6 UNK        -0.5032 
     45 CA        -76.8114   28.1373  -75.6353 C.3       5 UNK         0.0783 
     46 C46       -78.2568   28.6937  -75.7153 C.3       11 UNK        -0.0857 
     47 S47       -78.3252   30.5118  -75.8790 S.3       11 UNK        -0.2512 
     48 C48       -79.6657   30.9605  -74.7239 C.3       11 UNK         0.0225 
     49 N         -76.8054   26.7168  -75.2653 N.am      5 UNK        -0.4615 
     50 C         -75.7097   25.9717  -75.0652 C.2       4 UNK         0.5053 
     51 O         -74.5723   26.4413  -74.9867 O.2       4 UNK        -0.5105 
     52 CA        -75.8801   24.4429  -74.9947 C.3       4 UNK         0.0263 
     53 CB        -75.6809   23.9097  -73.5682 C.3       4 UNK        -0.1981 
     54 N         -77.1437   23.9199  -75.5215 N.am      4 UNK        -0.4224 
     55 C         -77.6097   24.0299  -76.7705 C.2       3 UNK         0.4895 
     56 O         -77.0575   24.6959  -77.6470 O.2       3 UNK        -0.5091 
     57 CA        -78.9092   23.2753  -77.1055 C.3       3 UNK         0.0250 
     58 CB        -78.6223   21.7779  -77.3282 C.3       3 UNK        -0.1996 
     59 N         -80.0215   23.4710  -76.1595 N.am      3 UNK        -0.4254 
     60 C         -80.0984   23.1463  -74.8600 C.2       2 UNK         0.5004 
     61 O         -79.1845   22.6286  -74.2124 O.2       2 UNK        -0.5226 
     62 CA        -81.4216   23.4516  -74.1550 C.3       2 UNK         0.0269 
     63 CB        -82.2063   22.1610  -73.8635 C.3       2 UNK        -0.1926 
     64 N         -81.1173   24.1414  -72.9049 N.am      2 UNK        -0.4687 
     65 C         -81.8163   25.1696  -72.4100 C.2       1 UNK         0.5165 
     66 O         -82.8711   25.5645  -72.9122 O.2       1 UNK        -0.5079 
     67 H67       -77.2198   25.3072  -70.7481 H         1 UNK         0.0900 
     68 H68       -77.2436   27.0749  -70.6785 H         1 UNK         0.0900 
     69 H69       -76.7276   26.2578  -72.1506 H         1 UNK         0.0900 
     70 H70       -79.4997   25.3761  -70.1024 H         1 UNK         0.2959 
     71 H71       -81.6865   25.3219  -70.3105 H         1 UNK         0.1079 
     72 H72       -82.8456   27.3806  -71.0391 H         1 UNK         0.0837 
     73 H73       -81.4263   27.9059  -71.9074 H         1 UNK         0.0837 
     74 H74       -82.1759   30.1586  -70.4559 H         1 UNK         0.0685 
     75 H75       -81.1126   30.5427  -69.1294 H         1 UNK         0.0685 
     76 H76       -81.3439   30.2447  -72.7252 H         1 UNK         0.1434 
     77 H77       -77.2544   31.3331  -73.4207 H         1 UNK         0.1329 
     78 H78       -78.5755   30.3834  -69.4568 H         1 UNK         0.1335 
     79 H79       -76.4335   31.6584  -69.8970 H         1 UNK         0.0680 
     80 H80       -75.8126   31.8095  -71.5195 H         1 UNK         0.0680 
     81 H81       -75.5882   28.2290  -72.5931 H         1 UNK         0.1032 
     82 H82       -75.3684   29.9054  -73.0018 H         1 UNK         0.1032 
     83 H83       -72.9876   29.7619  -72.1356 H         1 UNK         0.0461 
     84 H84       -73.5125   26.3726  -73.3232 H         1 UNK         0.3453 
     85 H85       -72.7282   25.6452  -71.9348 H         1 UNK         0.3453 
     86 H86       -73.6792   28.1101  -74.5282 H         1 UNK         0.2984 
     87 H87       -72.6889   29.4946  -76.6578 H         1 UNK         0.0554 
     88 H88       -70.3958   29.4047  -77.6338 H         1 UNK         0.0847 
     89 H89       -69.7009   29.3327  -76.0149 H         1 UNK         0.0847 
     90 H90       -70.5783   30.7625  -76.5370 H         1 UNK         0.0847 
     91 H91       -72.5675   27.3071  -76.9833 H         1 UNK         0.3141 
     92 H92       -70.4602   24.8906  -76.4961 H         1 UNK         0.0743 
     93 H93       -72.6296   24.5437  -74.3641 H         1 UNK         0.0784 
     94 H94       -71.6620   23.2706  -75.0944 H         1 UNK         0.0784 
     95 H95       -70.8996   24.4615  -74.0559 H         1 UNK         0.0784 
     96 H96       -73.3987   25.4219  -76.7297 H         1 UNK         0.3213 
     97 H97       -73.3658   24.2161  -80.0542 H         1 UNK         0.0855 
     98 H98       -73.7402   22.0694  -78.8631 H         1 UNK         0.0814 
     99 H99       -75.2708   22.7839  -79.3420 H         1 UNK         0.0814 
    100 H100      -74.7401   22.8740  -77.6645 H         1 UNK         0.0814 
    101 H101      -75.5314   25.1324  -78.4630 H         1 UNK         0.3105 
    102 H102      -75.1982   28.5805  -79.4290 H         1 UNK         0.0547 
    103 H103      -77.4278   28.0042  -80.3408 H         1 UNK         0.0837 
    104 H104      -76.1601   27.3074  -81.3357 H         1 UNK         0.0837 
    105 H105      -77.0640   26.2835  -80.2276 H         1 UNK         0.0837 
    106 H106      -76.8395   26.7109  -77.7744 H         1 UNK         0.3020 
    107 H107      -76.2858   28.6777  -74.8488 H         1 UNK         0.1245 
    108 H108      -78.8032   28.4153  -74.8142 H         1 UNK         0.0781 
    109 H109      -78.8042   28.2457  -76.5466 H         1 UNK         0.0781 
    110 H110      -80.5530   30.3823  -74.9873 H         1 UNK         0.0836 
    111 H111      -79.9229   32.0079  -74.8861 H         1 UNK         0.0836 
    112 H112      -77.7033   26.2551  -75.2505 H         1 UNK         0.3022 
    113 H113      -75.0812   24.0284  -75.6109 H         1 UNK         0.0747 
    114 H114      -75.4883   22.8367  -73.5799 H         1 UNK         0.0793 
    115 H115      -76.5624   24.0722  -72.9498 H         1 UNK         0.0793 
    116 H116      -74.8327   24.3796  -73.0711 H         1 UNK         0.0793 
    117 H117      -77.7143   23.3698  -74.8797 H         1 UNK         0.3047 
    118 H118      -79.2588   23.6814  -78.0563 H         1 UNK         0.0822 
    119 H119      -78.2784   21.2863  -76.4175 H         1 UNK         0.0807 
    120 H120      -77.8479   21.6374  -78.0838 H         1 UNK         0.0807 
    121 H121      -79.5117   21.2523  -77.6757 H         1 UNK         0.0807 
    122 H122      -80.8325   23.9156  -76.5683 H         1 UNK         0.2946 
    123 H123      -82.0241   24.0947  -74.8011 H         1 UNK         0.1144 
    124 H124      -82.4310   21.6237  -74.7857 H         1 UNK         0.0793 
    125 H125      -81.6443   21.4841  -73.2185 H         1 UNK         0.0793 
    126 H126      -83.1561   22.3777  -73.3742 H         1 UNK         0.0793 
    127 H127      -80.2340   23.8963  -72.4764 H         1 UNK         0.2896 
@<TRIPOS>BOND
     1    1    2 1    
     2    1   67 1    
     3    1   68 1    
     4    1   69 1    
     5    2    3 2    
     6    2    4 am   BACKBONE|DICT|INTERRES
     7    4    5 1    
     8    4   70 1    
     9    5    6 1    
    10    5   65 1    
    11    5   71 1    
    12    6    7 1    
    13    6   72 1    
    14    6   73 1    
    15    7    8 1    
    16    8    9 1    
    17    8   74 1    
    18    8   75 1    
    19    9   10 ar   
    20    9   14 ar   
    21   10   11 ar   
    22   10   76 1    
    23   11   12 ar   
    24   11   48 1    
    25   12   13 ar   
    26   12   77 1    
    27   13   14 ar   
    28   13   15 1    
    29   14   78 1    
    30   15   16 1    
    31   15   79 1    
    32   15   80 1    
    33   16   17 1    
    34   17   18 1    
    35   17   81 1    
    36   17   82 1    
    37   18   19 1    
    38   18   22 1    
    39   18   83 1    
    40   19   20 am   BACKBONE|DICT|INTERRES
    41   19   21 2    
    42   20   84 1    
    43   20   85 1    
    44   22   23 am   BACKBONE|DICT|INTERRES
    45   22   86 1    
    46   23   24 2    
    47   23   25 1    
    48   25   26 1    
    49   25   27 1    
    50   25   87 1    
    51   26   88 1    
    52   26   89 1    
    53   26   90 1    
    54   27   28 am   BACKBONE|DICT|INTERRES
    55   27   91 1    
    56   28   29 2    
    57   28   30 1    
    58   30   31 1    
    59   30   32 1    
    60   30   92 1    
    61   31   93 1    
    62   31   94 1    
    63   31   95 1    
    64   32   33 am   BACKBONE|DICT|INTERRES
    65   32   96 1    
    66   33   34 2    
    67   33   35 1    
    68   35   36 1    
    69   35   37 1    
    70   35   97 1    
    71   36   98 1    
    72   36   99 1    
    73   36  100 1    
    74   37   38 am   BACKBONE|DICT|INTERRES
    75   37  101 1    
    76   38   39 2    
    77   38   40 1    
    78   40   41 1    
    79   40   42 1    
    80   40  102 1    
    81   41  103 1    
    82   41  104 1    
    83   41  105 1    
    84   42   43 am   BACKBONE|DICT|INTERRES
    85   42  106 1    
    86   43   44 2    
    87   43   45 1    
    88   45   46 1    
    89   45   49 1    
    90   45  107 1    
    91   46   47 1    
    92   46  108 1    
    93   46  109 1    
    94   47   48 1    
    95   48  110 1    
    96   48  111 1    
    97   49   50 am   BACKBONE|DICT|INTERRES
    98   49  112 1    
    99   50   51 2    
   100   50   52 1    
   101   52   53 1    
   102   52   54 1    
   103   52  113 1    
   104   53  114 1    
   105   53  115 1    
   106   53  116 1    
   107   54   55 am   BACKBONE|DICT|INTERRES
   108   54  117 1    
   109   55   56 2    
   110   55   57 1    
   111   57   58 1    
   112   57   59 1    
   113   57  118 1    
   114   58  119 1    
   115   58  120 1    
   116   58  121 1    
   117   59   60 am   BACKBONE|DICT|INTERRES
   118   59  122 1    
   119   60   61 2    
   120   60   62 1    
   121   62   63 1    
   122   62   64 1    
   123   62  123 1    
   124   63  124 1    
   125   63  125 1    
   126   63  126 1    
   127   64   65 am   BACKBONE|DICT|INTERRES
   128   64  127 1    
   129   65   66 2    
@<TRIPOS>SUBSTRUCTURE
     1 UNK         1 GROUP             0       ****    0 ROOT    
