@<TRIPOS>MOLECULE
3R135
127   129    1
SMALL
USER_CHARGES


@<TRIPOS>ATOM
      1 CA        -74.9760   23.3591  -74.4953 C.3       0 UNK        -0.1998 
      2 C         -75.4418   23.7239  -73.0951 C.2       0 UNK         0.4909 
      3 O         -75.3084   22.9187  -72.1740 O.2       0 UNK        -0.5240 
      4 N         -75.9933   24.9344  -72.9349 N.am      1 UNK        -0.4739 
      5 CA        -76.5874   25.4355  -71.6869 C.3       1 UNK         0.0864 
      6 C6        -76.8740   26.9500  -71.8298 C.3       11 UNK        -0.0881 
      7 S7        -77.5373   27.7731  -70.3397 S.3       11 UNK        -0.2682 
      8 C8        -79.2649   28.1147  -70.8419 C.3       11 UNK         0.0289 
      9 C9        -79.3823   28.9678  -72.1043 C.ar      11 UNK        -0.0687 
     10 C10       -80.3378   28.6523  -73.0771 C.ar      11 UNK        -0.0823 
     11 C11       -80.4303   29.4043  -74.2534 C.ar      11 UNK        -0.0830 
     12 C12       -79.5448   30.4675  -74.4615 C.ar      11 UNK        -0.1021 
     13 C13       -78.5889   30.7963  -73.4971 C.ar      11 UNK        -0.0753 
     14 C14       -78.5361   30.0625  -72.3098 C.ar      11 UNK        -0.0933 
     15 C15       -77.6143   31.9418  -73.7385 C.3       11 UNK         0.0166 
     16 S16       -76.0903   31.3705  -74.5624 S.3       11 UNK        -0.2615 
     17 C17       -75.2450   30.4762  -73.2134 C.3       11 UNK        -0.0865 
     18 CA        -73.7391   30.8257  -73.1000 C.3       10 UNK         0.0862 
     19 C         -73.1603   30.2662  -71.7716 C.2       10 UNK         0.5551 
     20 N         -72.9160   31.1209  -70.7882 N.am      10 UNK        -0.7319 
     21 O         -72.9837   29.0605  -71.6144 O.2       10 UNK        -0.5018 
     22 N         -72.9886   30.3343  -74.2628 N.am      10 UNK        -0.4509 
     23 C         -71.7085   30.6209  -74.5365 C.2       10 UNK         0.4899 
     24 O         -71.0407   31.4497  -73.9156 O.2       10 UNK        -0.4839 
     25 CA        -71.0809   29.8293  -75.7013 C.3       9 UNK         0.0222 
     26 CB        -69.5600   30.0511  -75.8497 C.3       9 UNK        -0.1966 
     27 N         -71.4190   28.4005  -75.6274 N.am      9 UNK        -0.4218 
     28 C         -71.0793   27.5336  -74.6579 C.2       9 UNK         0.5020 
     29 O         -70.2712   27.7950  -73.7659 O.2       9 UNK        -0.5274 
     30 CA        -71.7710   26.1534  -74.6375 C.3       8 UNK         0.0270 
     31 CB        -72.5222   25.9600  -73.3069 C.3       8 UNK        -0.1976 
     32 N         -72.7081   25.9441  -75.7479 N.am      8 UNK        -0.4313 
     33 C         -72.3736   25.4795  -76.9615 C.2       8 UNK         0.5041 
     34 O         -71.2512   25.0606  -77.2449 O.2       8 UNK        -0.5577 
     35 CA        -73.4565   25.5323  -78.0634 C.3       7 UNK         0.0284 
     36 CB        -74.1008   24.1532  -78.2725 C.3       7 UNK        -0.1958 
     37 N         -74.5046   26.5357  -77.8268 N.am      7 UNK        -0.4454 
     38 C         -74.2737   27.8521  -77.7149 C.2       7 UNK         0.5089 
     39 O         -73.1602   28.3493  -77.8756 O.2       7 UNK        -0.5125 
     40 CA        -75.4272   28.7794  -77.2998 C.3       6 UNK         0.0408 
     41 CB        -75.6428   29.8903  -78.3403 C.3       6 UNK        -0.1791 
     42 N         -76.7052   28.1209  -77.0397 N.am      6 UNK        -0.4762 
     43 C         -77.0034   27.3054  -76.0187 C.2       6 UNK         0.5007 
     44 O         -76.1783   26.8914  -75.1979 O.2       6 UNK        -0.5032 
     45 CA        -78.4781   26.8625  -75.9065 C.3       5 UNK         0.0783 
     46 C46       -79.4632   27.7223  -76.7511 C.3       11 UNK        -0.0857 
     47 S47       -81.1776   27.5052  -76.1713 S.3       11 UNK        -0.2512 
     48 C48       -81.4895   29.0777  -75.3011 C.3       11 UNK         0.0225 
     49 N         -78.6588   25.4280  -76.1612 N.am      5 UNK        -0.4615 
     50 C         -78.2283   24.7241  -77.2216 C.2       4 UNK         0.5053 
     51 O         -77.4737   25.1769  -78.0835 O.2       4 UNK        -0.5105 
     52 CA        -78.7124   23.2653  -77.3620 C.3       4 UNK         0.0263 
     53 CB        -77.5475   22.2811  -77.1742 C.3       4 UNK        -0.1981 
     54 N         -79.7857   22.9079  -76.4309 N.am      4 UNK        -0.4224 
     55 C         -81.0761   23.2476  -76.5680 C.2       3 UNK         0.4895 
     56 O         -81.5336   23.8101  -77.5628 O.2       3 UNK        -0.5091 
     57 CA        -82.0124   22.9246  -75.3837 C.3       3 UNK         0.0250 
     58 CB        -82.7976   21.6313  -75.6565 C.3       3 UNK        -0.1996 
     59 N         -81.3271   22.8105  -74.0870 N.am      3 UNK        -0.4254 
     60 C         -80.6432   23.8014  -73.4969 C.2       2 UNK         0.5004 
     61 O         -80.5428   24.9300  -73.9802 O.2       2 UNK        -0.5226 
     62 CA        -79.8721   23.4839  -72.2082 C.3       2 UNK         0.0269 
     63 CB        -79.6126   21.9799  -71.9730 C.3       2 UNK        -0.1926 
     64 N         -78.6074   24.2044  -72.3003 N.am      2 UNK        -0.4687 
     65 C         -77.8473   24.6298  -71.2883 C.2       1 UNK         0.5165 
     66 O         -78.0920   24.3986  -70.1032 O.2       1 UNK        -0.5079 
     67 H67       -75.3914   24.0396  -75.2373 H         1 UNK         0.0900 
     68 H68       -75.2921   22.3467  -74.7429 H         1 UNK         0.0900 
     69 H69       -73.8896   23.3934  -74.5621 H         1 UNK         0.0900 
     70 H70       -76.0424   25.5686  -73.7276 H         1 UNK         0.2959 
     71 H71       -75.8533   25.2984  -70.8898 H         1 UNK         0.1079 
     72 H72       -75.9450   27.4626  -72.0827 H         1 UNK         0.0837 
     73 H73       -77.5396   27.1241  -72.6754 H         1 UNK         0.0837 
     74 H74       -79.7776   27.1609  -70.9777 H         1 UNK         0.0685 
     75 H75       -79.7734   28.6272  -70.0246 H         1 UNK         0.0685 
     76 H76       -81.0055   27.8137  -72.9289 H         1 UNK         0.1434 
     77 H77       -79.5969   31.0424  -75.3762 H         1 UNK         0.1329 
     78 H78       -77.8151   30.3250  -71.5496 H         1 UNK         0.1335 
     79 H79       -78.0858   32.7000  -74.3655 H         1 UNK         0.0680 
     80 H80       -77.3654   32.4393  -72.7998 H         1 UNK         0.0680 
     81 H81       -75.3882   29.4048  -73.3637 H         1 UNK         0.1032 
     82 H82       -75.7399   30.7183  -72.2729 H         1 UNK         0.1032 
     83 H83       -73.6433   31.9135  -73.0851 H         1 UNK         0.0461 
     84 H84       -72.5577   30.7704  -69.9137 H         1 UNK         0.3453 
     85 H85       -73.0640   32.1109  -70.9080 H         1 UNK         0.3453 
     86 H86       -73.4527   29.6358  -74.8202 H         1 UNK         0.2984 
     87 H87       -71.5516   30.2059  -76.6105 H         1 UNK         0.0554 
     88 H88       -69.1544   29.4746  -76.6809 H         1 UNK         0.0847 
     89 H89       -69.0146   29.7707  -74.9483 H         1 UNK         0.0847 
     90 H90       -69.3388   31.1009  -76.0453 H         1 UNK         0.0847 
     91 H91       -72.0454   28.0863  -76.3636 H         1 UNK         0.3141 
     92 H92       -70.9779   25.4043  -74.6872 H         1 UNK         0.0743 
     93 H93       -73.4158   26.5829  -73.2477 H         1 UNK         0.0784 
     94 H94       -72.8152   24.9221  -73.1672 H         1 UNK         0.0784 
     95 H95       -71.8961   26.2178  -72.4515 H         1 UNK         0.0784 
     96 H96       -73.6582   26.2606  -75.6072 H         1 UNK         0.3213 
     97 H97       -72.9489   25.8084  -78.9902 H         1 UNK         0.0855 
     98 H98       -74.6530   23.8250  -77.3943 H         1 UNK         0.0814 
     99 H99       -73.3442   23.3962  -78.4836 H         1 UNK         0.0814 
    100 H100      -74.7921   24.1629  -79.1156 H         1 UNK         0.0814 
    101 H101      -75.4544   26.2002  -77.7137 H         1 UNK         0.3105 
    102 H102      -75.1129   29.2512  -76.3682 H         1 UNK         0.0547 
    103 H103      -74.7214   30.4459  -78.5210 H         1 UNK         0.0837 
    104 H104      -75.9736   29.4879  -79.2984 H         1 UNK         0.0837 
    105 H105      -76.3863   30.6119  -78.0009 H         1 UNK         0.0837 
    106 H106      -77.4448   28.3392  -77.6912 H         1 UNK         0.3020 
    107 H107      -78.7286   27.0145  -74.8556 H         1 UNK         0.1245 
    108 H108      -79.2216   28.7850  -76.7054 H         1 UNK         0.0781 
    109 H109      -79.4185   27.4450  -77.8058 H         1 UNK         0.0781 
    110 H110      -81.5617   29.8785  -76.0388 H         1 UNK         0.0836 
    111 H111      -82.4662   29.0238  -74.8183 H         1 UNK         0.0836 
    112 H112      -79.3168   24.9864  -75.5281 H         1 UNK         0.3022 
    113 H113      -79.0870   23.1532  -78.3818 H         1 UNK         0.0747 
    114 H114      -77.8587   21.2573  -77.3828 H         1 UNK         0.0793 
    115 H115      -76.7247   22.5092  -77.8528 H         1 UNK         0.0793 
    116 H116      -77.1576   22.3105  -76.1581 H         1 UNK         0.0793 
    117 H117      -79.5132   22.4166  -75.5927 H         1 UNK         0.3047 
    118 H118      -82.7247   23.7491  -75.3070 H         1 UNK         0.0822 
    119 H119      -83.5334   21.4405  -74.8751 H         1 UNK         0.0807 
    120 H120      -82.1393   20.7639  -75.7192 H         1 UNK         0.0807 
    121 H121      -83.3411   21.6964  -76.6003 H         1 UNK         0.0807 
    122 H122      -81.3568   21.9073  -73.6357 H         1 UNK         0.2946 
    123 H123      -80.4542   23.8855  -71.3758 H         1 UNK         0.1144 
    124 H124      -80.5439   21.4304  -71.8314 H         1 UNK         0.0793 
    125 H125      -79.0172   21.8207  -71.0737 H         1 UNK         0.0793 
    126 H126      -79.0742   21.5248  -72.8053 H         1 UNK         0.0793 
    127 H127      -78.3516   24.4930  -73.2334 H         1 UNK         0.2896 
@<TRIPOS>BOND
     1    1    2 1    
     2    1   67 1    
     3    1   68 1    
     4    1   69 1    
     5    2    3 2    
     6    2    4 am   BACKBONE|DICT|INTERRES
     7    4    5 1    
     8    4   70 1    
     9    5    6 1    
    10    5   65 1    
    11    5   71 1    
    12    6    7 1    
    13    6   72 1    
    14    6   73 1    
    15    7    8 1    
    16    8    9 1    
    17    8   74 1    
    18    8   75 1    
    19    9   10 ar   
    20    9   14 ar   
    21   10   11 ar   
    22   10   76 1    
    23   11   12 ar   
    24   11   48 1    
    25   12   13 ar   
    26   12   77 1    
    27   13   14 ar   
    28   13   15 1    
    29   14   78 1    
    30   15   16 1    
    31   15   79 1    
    32   15   80 1    
    33   16   17 1    
    34   17   18 1    
    35   17   81 1    
    36   17   82 1    
    37   18   19 1    
    38   18   22 1    
    39   18   83 1    
    40   19   20 am   BACKBONE|DICT|INTERRES
    41   19   21 2    
    42   20   84 1    
    43   20   85 1    
    44   22   23 am   BACKBONE|DICT|INTERRES
    45   22   86 1    
    46   23   24 2    
    47   23   25 1    
    48   25   26 1    
    49   25   27 1    
    50   25   87 1    
    51   26   88 1    
    52   26   89 1    
    53   26   90 1    
    54   27   28 am   BACKBONE|DICT|INTERRES
    55   27   91 1    
    56   28   29 2    
    57   28   30 1    
    58   30   31 1    
    59   30   32 1    
    60   30   92 1    
    61   31   93 1    
    62   31   94 1    
    63   31   95 1    
    64   32   33 am   BACKBONE|DICT|INTERRES
    65   32   96 1    
    66   33   34 2    
    67   33   35 1    
    68   35   36 1    
    69   35   37 1    
    70   35   97 1    
    71   36   98 1    
    72   36   99 1    
    73   36  100 1    
    74   37   38 am   BACKBONE|DICT|INTERRES
    75   37  101 1    
    76   38   39 2    
    77   38   40 1    
    78   40   41 1    
    79   40   42 1    
    80   40  102 1    
    81   41  103 1    
    82   41  104 1    
    83   41  105 1    
    84   42   43 am   BACKBONE|DICT|INTERRES
    85   42  106 1    
    86   43   44 2    
    87   43   45 1    
    88   45   46 1    
    89   45   49 1    
    90   45  107 1    
    91   46   47 1    
    92   46  108 1    
    93   46  109 1    
    94   47   48 1    
    95   48  110 1    
    96   48  111 1    
    97   49   50 am   BACKBONE|DICT|INTERRES
    98   49  112 1    
    99   50   51 2    
   100   50   52 1    
   101   52   53 1    
   102   52   54 1    
   103   52  113 1    
   104   53  114 1    
   105   53  115 1    
   106   53  116 1    
   107   54   55 am   BACKBONE|DICT|INTERRES
   108   54  117 1    
   109   55   56 2    
   110   55   57 1    
   111   57   58 1    
   112   57   59 1    
   113   57  118 1    
   114   58  119 1    
   115   58  120 1    
   116   58  121 1    
   117   59   60 am   BACKBONE|DICT|INTERRES
   118   59  122 1    
   119   60   61 2    
   120   60   62 1    
   121   62   63 1    
   122   62   64 1    
   123   62  123 1    
   124   63  124 1    
   125   63  125 1    
   126   63  126 1    
   127   64   65 am   BACKBONE|DICT|INTERRES
   128   64  127 1    
   129   65   66 2    
@<TRIPOS>SUBSTRUCTURE
     1 UNK         1 GROUP             0       ****    0 ROOT    
