@<TRIPOS>MOLECULE
3R135
127   129    1
SMALL
USER_CHARGES


@<TRIPOS>ATOM
      1 CA        -79.6283   24.4820  -70.0610 C.3       0 UNK        -0.1998 
      2 C         -80.8327   25.1458  -70.7093 C.2       0 UNK         0.4909 
      3 O         -81.9077   24.5468  -70.7541 O.2       0 UNK        -0.5240 
      4 N         -80.6674   26.3840  -71.1954 N.am      1 UNK        -0.4739 
      5 CA        -81.7425   27.1946  -71.7887 C.3       1 UNK         0.0864 
      6 C6        -81.3663   28.6929  -71.8987 C.3       11 UNK        -0.0881 
      7 S7        -80.8337   29.3910  -70.2938 S.3       11 UNK        -0.2682 
      8 C8        -79.6688   30.7064  -70.7874 C.3       11 UNK         0.0289 
      9 C9        -78.5529   30.2024  -71.6934 C.ar      11 UNK        -0.0687 
     10 C10       -77.6814   29.1988  -71.2576 C.ar      11 UNK        -0.0823 
     11 C11       -76.6979   28.6976  -72.1141 C.ar      11 UNK        -0.0830 
     12 C12       -76.5837   29.2177  -73.4051 C.ar      11 UNK        -0.1021 
     13 C13       -77.4066   30.2627  -73.8367 C.ar      11 UNK        -0.0753 
     14 C14       -78.4012   30.7377  -72.9772 C.ar      11 UNK        -0.0933 
     15 C15       -77.2613   30.8732  -75.2293 C.3       11 UNK         0.0166 
     16 S16       -75.5497   30.9215  -75.8702 S.3       11 UNK        -0.2615 
     17 C17       -74.7766   32.3057  -74.9649 C.3       11 UNK        -0.0865 
     18 CA        -73.6109   31.9495  -73.9829 C.3       10 UNK         0.0862 
     19 C         -73.9912   31.6546  -72.4964 C.2       10 UNK         0.5551 
     20 N         -75.1976   31.9769  -72.0522 N.am      10 UNK        -0.7319 
     21 O         -73.1552   31.2206  -71.7056 O.2       10 UNK        -0.5018 
     22 N         -72.5715   31.0717  -74.5614 N.am      10 UNK        -0.4509 
     23 C         -72.4907   29.7342  -74.4796 C.2       10 UNK         0.4899 
     24 O         -73.3489   29.0039  -73.9837 O.2       10 UNK        -0.4839 
     25 CA        -71.1939   29.1038  -75.0069 C.3       9 UNK         0.0222 
     26 CB        -70.0152   29.4619  -74.0731 C.3       9 UNK        -0.1966 
     27 N         -71.3745   27.6524  -75.0819 N.am      9 UNK        -0.4218 
     28 C         -70.5055   26.7625  -75.5778 C.2       9 UNK         0.5020 
     29 O         -69.4258   27.0627  -76.0896 O.2       9 UNK        -0.5274 
     30 CA        -70.9119   25.2835  -75.4977 C.3       8 UNK         0.0270 
     31 CB        -71.1799   24.8350  -74.0492 C.3       8 UNK        -0.1976 
     32 N         -72.0863   25.0363  -76.3324 N.am      8 UNK        -0.4313 
     33 C         -72.0296   24.7880  -77.6501 C.2       8 UNK         0.5041 
     34 O         -70.9763   24.6279  -78.2691 O.2       8 UNK        -0.5577 
     35 CA        -73.3583   24.7000  -78.4267 C.3       7 UNK         0.0284 
     36 CB        -73.7819   23.2318  -78.5967 C.3       7 UNK        -0.1958 
     37 N         -74.4587   25.4466  -77.8161 N.am      7 UNK        -0.4454 
     38 C         -74.4797   26.7686  -77.6008 C.2       7 UNK         0.5089 
     39 O         -73.6047   27.5420  -77.9902 O.2       7 UNK        -0.5125 
     40 CA        -75.6558   27.3149  -76.7742 C.3       6 UNK         0.0408 
     41 CB        -76.7709   27.8281  -77.6964 C.3       6 UNK        -0.1791 
     42 N         -76.2170   26.3634  -75.8079 N.am      6 UNK        -0.4762 
     43 C         -75.5370   25.7870  -74.8033 C.2       6 UNK         0.5007 
     44 O         -74.3293   25.9370  -74.6157 O.2       6 UNK        -0.5032 
     45 CA        -76.3422   24.8388  -73.8977 C.3       5 UNK         0.0783 
     46 C46       -77.2930   25.6182  -72.9515 C.3       11 UNK        -0.0857 
     47 S47       -76.5384   26.0141  -71.3408 S.3       11 UNK        -0.2512 
     48 C48       -75.7316   27.6190  -71.6450 C.3       11 UNK         0.0225 
     49 N         -77.0746   23.8847  -74.7300 N.am      5 UNK        -0.4615 
     50 C         -76.5325   22.8064  -75.3118 C.2       4 UNK         0.5053 
     51 O         -75.3788   22.4289  -75.1099 O.2       4 UNK        -0.5105 
     52 CA        -77.4168   22.0230  -76.3010 C.3       4 UNK         0.0263 
     53 CB        -78.1016   20.8447  -75.5904 C.3       4 UNK        -0.1981 
     54 N         -78.4355   22.8506  -76.9547 N.am      4 UNK        -0.4224 
     55 C         -78.1731   23.8605  -77.7971 C.2       3 UNK         0.4895 
     56 O         -77.0403   24.1597  -78.1708 O.2       3 UNK        -0.5091 
     57 CA        -79.3665   24.7163  -78.2599 C.3       3 UNK         0.0250 
     58 CB        -79.9378   24.1682  -79.5770 C.3       3 UNK        -0.1996 
     59 N         -80.4462   24.8411  -77.2721 N.am      3 UNK        -0.4254 
     60 C         -80.3109   25.3119  -76.0239 C.2       2 UNK         0.5004 
     61 O         -79.2340   25.6729  -75.5384 O.2       2 UNK        -0.5226 
     62 CA        -81.5831   25.3294  -75.1677 C.3       2 UNK         0.0269 
     63 CB        -82.0857   23.8989  -74.8890 C.3       2 UNK        -0.1926 
     64 N         -81.3134   25.9963  -73.8965 N.am      2 UNK        -0.4687 
     65 C         -82.2162   26.6480  -73.1528 C.2       1 UNK         0.5165 
     66 O         -83.3891   26.8100  -73.4940 O.2       1 UNK        -0.5079 
     67 H67       -79.1489   23.7981  -70.7606 H         1 UNK         0.0900 
     68 H68       -79.9374   23.9116  -69.1854 H         1 UNK         0.0900 
     69 H69       -78.8942   25.2174  -69.7341 H         1 UNK         0.0900 
     70 H70       -79.7707   26.8418  -71.1118 H         1 UNK         0.2959 
     71 H71       -82.6019   27.1241  -71.1177 H         1 UNK         0.1079 
     72 H72       -80.5814   28.8221  -72.6447 H         1 UNK         0.0837 
     73 H73       -82.2187   29.2764  -72.2520 H         1 UNK         0.0837 
     74 H74       -80.2325   31.5048  -71.2724 H         1 UNK         0.0685 
     75 H75       -79.2280   31.1428  -69.8902 H         1 UNK         0.0685 
     76 H76       -77.7815   28.7947  -70.2595 H         1 UNK         0.1434 
     77 H77       -75.8279   28.8236  -74.0663 H         1 UNK         0.1329 
     78 H78       -79.0648   31.5233  -73.3118 H         1 UNK         0.1335 
     79 H79       -77.8675   30.2850  -75.9183 H         1 UNK         0.0680 
     80 H80       -77.6706   31.8844  -75.2501 H         1 UNK         0.0680 
     81 H81       -75.5442   32.9104  -74.4820 H         1 UNK         0.1032 
     82 H82       -74.3713   32.9630  -75.7354 H         1 UNK         0.1032 
     83 H83       -73.0717   32.8906  -73.8665 H         1 UNK         0.0461 
     84 H84       -75.9159   32.2979  -72.6789 H         1 UNK         0.3453 
     85 H85       -75.4201   31.8008  -71.0862 H         1 UNK         0.3453 
     86 H86       -71.7934   31.5604  -74.9791 H         1 UNK         0.2984 
     87 H87       -71.0052   29.4844  -76.0124 H         1 UNK         0.0554 
     88 H88       -69.0655   29.0832  -74.4494 H         1 UNK         0.0847 
     89 H89       -70.1631   29.0560  -73.0715 H         1 UNK         0.0847 
     90 H90       -69.9004   30.5415  -73.9706 H         1 UNK         0.0847 
     91 H91       -72.2656   27.3361  -74.7099 H         1 UNK         0.3141 
     92 H92       -70.0759   24.6867  -75.8695 H         1 UNK         0.0743 
     93 H93       -71.9979   25.3851  -73.5845 H         1 UNK         0.0784 
     94 H94       -71.4279   23.7743  -74.0057 H         1 UNK         0.0784 
     95 H95       -70.2958   24.9861  -73.4286 H         1 UNK         0.0784 
     96 H96       -72.9908   25.2006  -75.8995 H         1 UNK         0.3213 
     97 H97       -73.1843   25.1255  -79.4171 H         1 UNK         0.0855 
     98 H98       -74.0103   22.7655  -77.6374 H         1 UNK         0.0814 
     99 H99       -72.9888   22.6468  -79.0645 H         1 UNK         0.0814 
    100 H100      -74.6644   23.1438  -79.2307 H         1 UNK         0.0814 
    101 H101      -75.2853   24.9146  -77.5610 H         1 UNK         0.3105 
    102 H102      -75.2673   28.1512  -76.1958 H         1 UNK         0.0547 
    103 H103      -76.4168   28.6668  -78.2971 H         1 UNK         0.0837 
    104 H104      -77.1061   27.0547  -78.3867 H         1 UNK         0.0837 
    105 H105      -77.6345   28.1754  -77.1297 H         1 UNK         0.0837 
    106 H106      -77.2101   26.1696  -75.8822 H         1 UNK         0.3020 
    107 H107      -75.6281   24.2738  -73.2932 H         1 UNK         0.1245 
    108 H108      -78.1625   25.0012  -72.7224 H         1 UNK         0.0781 
    109 H109      -77.7046   26.5163  -73.4153 H         1 UNK         0.0781 
    110 H110      -74.9238   27.4810  -72.3648 H         1 UNK         0.0836 
    111 H111      -75.2534   27.9518  -70.7230 H         1 UNK         0.0836 
    112 H112      -78.0090   24.1689  -75.0002 H         1 UNK         0.3022 
    113 H113      -76.7618   21.6230  -77.0782 H         1 UNK         0.0747 
    114 H114      -78.6660   20.2308  -76.2926 H         1 UNK         0.0793 
    115 H115      -77.3652   20.1952  -75.1149 H         1 UNK         0.0793 
    116 H116      -78.7870   21.1842  -74.8125 H         1 UNK         0.0793 
    117 H117      -79.3980   22.6702  -76.7100 H         1 UNK         0.3047 
    118 H118      -78.9902   25.7224  -78.4485 H         1 UNK         0.0822 
    119 H119      -80.7112   24.8233  -79.9784 H         1 UNK         0.0807 
    120 H120      -80.3704   23.1751  -79.4487 H         1 UNK         0.0807 
    121 H121      -79.1587   24.0885  -80.3368 H         1 UNK         0.0807 
    122 H122      -81.3655   24.5601  -77.5825 H         1 UNK         0.2946 
    123 H123      -82.3444   25.8883  -75.7171 H         1 UNK         0.1144 
    124 H124      -81.3371   23.3059  -74.3617 H         1 UNK         0.0793 
    125 H125      -82.3337   23.3720  -75.8109 H         1 UNK         0.0793 
    126 H126      -82.9884   23.9092  -74.2777 H         1 UNK         0.0793 
    127 H127      -80.3490   25.9660  -73.5943 H         1 UNK         0.2896 
@<TRIPOS>BOND
     1    1    2 1    
     2    1   67 1    
     3    1   68 1    
     4    1   69 1    
     5    2    3 2    
     6    2    4 am   BACKBONE|DICT|INTERRES
     7    4    5 1    
     8    4   70 1    
     9    5    6 1    
    10    5   65 1    
    11    5   71 1    
    12    6    7 1    
    13    6   72 1    
    14    6   73 1    
    15    7    8 1    
    16    8    9 1    
    17    8   74 1    
    18    8   75 1    
    19    9   10 ar   
    20    9   14 ar   
    21   10   11 ar   
    22   10   76 1    
    23   11   12 ar   
    24   11   48 1    
    25   12   13 ar   
    26   12   77 1    
    27   13   14 ar   
    28   13   15 1    
    29   14   78 1    
    30   15   16 1    
    31   15   79 1    
    32   15   80 1    
    33   16   17 1    
    34   17   18 1    
    35   17   81 1    
    36   17   82 1    
    37   18   19 1    
    38   18   22 1    
    39   18   83 1    
    40   19   20 am   BACKBONE|DICT|INTERRES
    41   19   21 2    
    42   20   84 1    
    43   20   85 1    
    44   22   23 am   BACKBONE|DICT|INTERRES
    45   22   86 1    
    46   23   24 2    
    47   23   25 1    
    48   25   26 1    
    49   25   27 1    
    50   25   87 1    
    51   26   88 1    
    52   26   89 1    
    53   26   90 1    
    54   27   28 am   BACKBONE|DICT|INTERRES
    55   27   91 1    
    56   28   29 2    
    57   28   30 1    
    58   30   31 1    
    59   30   32 1    
    60   30   92 1    
    61   31   93 1    
    62   31   94 1    
    63   31   95 1    
    64   32   33 am   BACKBONE|DICT|INTERRES
    65   32   96 1    
    66   33   34 2    
    67   33   35 1    
    68   35   36 1    
    69   35   37 1    
    70   35   97 1    
    71   36   98 1    
    72   36   99 1    
    73   36  100 1    
    74   37   38 am   BACKBONE|DICT|INTERRES
    75   37  101 1    
    76   38   39 2    
    77   38   40 1    
    78   40   41 1    
    79   40   42 1    
    80   40  102 1    
    81   41  103 1    
    82   41  104 1    
    83   41  105 1    
    84   42   43 am   BACKBONE|DICT|INTERRES
    85   42  106 1    
    86   43   44 2    
    87   43   45 1    
    88   45   46 1    
    89   45   49 1    
    90   45  107 1    
    91   46   47 1    
    92   46  108 1    
    93   46  109 1    
    94   47   48 1    
    95   48  110 1    
    96   48  111 1    
    97   49   50 am   BACKBONE|DICT|INTERRES
    98   49  112 1    
    99   50   51 2    
   100   50   52 1    
   101   52   53 1    
   102   52   54 1    
   103   52  113 1    
   104   53  114 1    
   105   53  115 1    
   106   53  116 1    
   107   54   55 am   BACKBONE|DICT|INTERRES
   108   54  117 1    
   109   55   56 2    
   110   55   57 1    
   111   57   58 1    
   112   57   59 1    
   113   57  118 1    
   114   58  119 1    
   115   58  120 1    
   116   58  121 1    
   117   59   60 am   BACKBONE|DICT|INTERRES
   118   59  122 1    
   119   60   61 2    
   120   60   62 1    
   121   62   63 1    
   122   62   64 1    
   123   62  123 1    
   124   63  124 1    
   125   63  125 1    
   126   63  126 1    
   127   64   65 am   BACKBONE|DICT|INTERRES
   128   64  127 1    
   129   65   66 2    
@<TRIPOS>SUBSTRUCTURE
     1 UNK         1 GROUP             0       ****    0 ROOT    
