@<TRIPOS>MOLECULE
3R135
127   129    1
SMALL
USER_CHARGES


@<TRIPOS>ATOM
      1 CA        -84.1123   22.4895  -74.7740 C.3       0 UNK        -0.1998 
      2 C         -84.5249   23.7078  -73.9619 C.2       0 UNK         0.4909 
      3 O         -85.6890   24.1063  -74.0005 O.2       0 UNK        -0.5240 
      4 N         -83.5767   24.3078  -73.2310 N.am      1 UNK        -0.4739 
      5 CA        -83.7857   25.4936  -72.3880 C.3       1 UNK         0.0864 
      6 C6        -82.7443   25.5508  -71.2409 C.3       11 UNK        -0.0881 
      7 S7        -81.0180   25.7625  -71.8084 S.3       11 UNK        -0.2682 
      8 C8        -80.6055   27.3596  -71.0464 C.3       11 UNK         0.0289 
      9 C9        -79.1659   27.7610  -71.3278 C.ar      11 UNK        -0.0687 
     10 C10       -78.1140   27.0996  -70.6865 C.ar      11 UNK        -0.0823 
     11 C11       -76.7930   27.4995  -70.9020 C.ar      11 UNK        -0.0830 
     12 C12       -76.5344   28.5695  -71.7610 C.ar      11 UNK        -0.1021 
     13 C13       -77.5670   29.2153  -72.4493 C.ar      11 UNK        -0.0753 
     14 C14       -78.8845   28.8106  -72.2081 C.ar      11 UNK        -0.0933 
     15 C15       -77.3175   30.3365  -73.4655 C.3       11 UNK         0.0166 
     16 S16       -75.6359   31.0603  -73.4962 S.3       11 UNK        -0.2615 
     17 C17       -74.6707   29.7976  -74.4037 C.3       11 UNK        -0.0865 
     18 CA        -73.1311   29.9687  -74.2390 C.3       10 UNK         0.0862 
     19 C         -72.5613   29.4311  -72.8887 C.2       10 UNK         0.5551 
     20 N         -71.4191   28.7532  -72.8666 N.am      10 UNK        -0.7319 
     21 O         -73.1425   29.6484  -71.8305 O.2       10 UNK        -0.5018 
     22 N         -72.4201   29.4151  -75.4021 N.am      10 UNK        -0.4509 
     23 C         -71.5699   30.0937  -76.1832 C.2       10 UNK         0.4899 
     24 O         -71.3672   31.3049  -76.0825 O.2       10 UNK        -0.4839 
     25 CA        -70.8175   29.2864  -77.2623 C.3       9 UNK         0.0222 
     26 CB        -69.5185   29.9799  -77.7257 C.3       9 UNK        -0.1966 
     27 N         -70.5485   27.8900  -76.8924 N.am      9 UNK        -0.4218 
     28 C         -69.8475   27.4425  -75.8363 C.2       9 UNK         0.5020 
     29 O         -69.3474   28.1875  -74.9923 O.2       9 UNK        -0.5274 
     30 CA        -69.7100   25.9158  -75.6664 C.3       8 UNK         0.0270 
     31 CB        -69.7617   25.5023  -74.1832 C.3       8 UNK        -0.1976 
     32 N         -70.7727   25.2115  -76.3826 N.am      8 UNK        -0.4313 
     33 C         -70.6263   24.4853  -77.4989 C.2       8 UNK         0.5041 
     34 O         -69.5376   24.2378  -78.0179 O.2       8 UNK        -0.5577 
     35 CA        -71.9146   23.9673  -78.1728 C.3       7 UNK         0.0284 
     36 CB        -72.1583   22.4955  -77.8023 C.3       7 UNK        -0.1958 
     37 N         -73.1110   24.7503  -77.8410 N.am      7 UNK        -0.4454 
     38 C         -73.2932   26.0444  -78.1424 C.2       7 UNK         0.5089 
     39 O         -72.5037   26.7031  -78.8183 O.2       7 UNK        -0.5125 
     40 CA        -74.5121   26.7456  -77.5143 C.3       6 UNK         0.0408 
     41 CB        -75.6773   26.7707  -78.5134 C.3       6 UNK        -0.1791 
     42 N         -74.9502   26.1569  -76.2380 N.am      6 UNK        -0.4762 
     43 C         -74.1858   26.0575  -75.1355 C.2       6 UNK         0.5007 
     44 O         -73.0397   26.5074  -75.0919 O.2       6 UNK        -0.5032 
     45 CA        -74.7606   25.3414  -73.8914 C.3       5 UNK         0.0783 
     46 C46       -74.2928   26.0142  -72.5734 C.3       11 UNK        -0.0857 
     47 S47       -75.0696   25.3109  -71.0742 S.3       11 UNK        -0.2512 
     48 C48       -75.6422   26.8002  -70.1893 C.3       11 UNK         0.0225 
     49 N         -76.2165   25.1803  -73.9721 N.am      5 UNK        -0.4615 
     50 C         -76.8310   24.1175  -74.5075 C.2       4 UNK         0.5053 
     51 O         -76.2350   23.1704  -75.0204 O.2       4 UNK        -0.5105 
     52 CA        -78.3696   24.1229  -74.4986 C.3       4 UNK         0.0263 
     53 CB        -78.8917   23.4191  -73.2370 C.3       4 UNK        -0.1981 
     54 N         -78.9578   25.4657  -74.6117 N.am      4 UNK        -0.4224 
     55 C         -78.7975   26.2571  -75.6830 C.2       3 UNK         0.4895 
     56 O         -78.1542   25.9217  -76.6775 O.2       3 UNK        -0.5091 
     57 CA        -79.4854   27.6263  -75.6464 C.3       3 UNK         0.0250 
     58 CB        -79.0639   28.5425  -76.8157 C.3       3 UNK        -0.1996 
     59 N         -80.9329   27.4344  -75.6318 N.am      3 UNK        -0.4254 
     60 C         -81.8331   28.3569  -75.2658 C.2       2 UNK         0.5004 
     61 O         -81.5438   29.4845  -74.8650 O.2       2 UNK        -0.5226 
     62 CA        -83.3066   27.9325  -75.3385 C.3       2 UNK         0.0269 
     63 CB        -83.7381   27.6218  -76.7829 C.3       2 UNK        -0.1926 
     64 N         -83.5282   26.7624  -74.4911 N.am      2 UNK        -0.4687 
     65 C         -83.8259   26.8182  -73.1854 C.2       1 UNK         0.5165 
     66 O         -84.0981   27.8655  -72.5959 O.2       1 UNK        -0.5079 
     67 H67       -83.0546   22.2564  -74.6517 H         1 UNK         0.0900 
     68 H68       -84.3015   22.6623  -75.8331 H         1 UNK         0.0900 
     69 H69       -84.6890   21.6190  -74.4625 H         1 UNK         0.0900 
     70 H70       -82.6354   23.9405  -73.2291 H         1 UNK         0.2959 
     71 H71       -84.7696   25.4000  -71.9223 H         1 UNK         0.1079 
     72 H72       -83.0041   26.3459  -70.5393 H         1 UNK         0.0837 
     73 H73       -82.7936   24.6301  -70.6575 H         1 UNK         0.0837 
     74 H74       -80.7562   27.2965  -69.9677 H         1 UNK         0.0685 
     75 H75       -81.2970   28.1200  -71.4138 H         1 UNK         0.0685 
     76 H76       -78.3263   26.2808  -70.0122 H         1 UNK         0.1434 
     77 H77       -75.5148   28.8910  -71.8874 H         1 UNK         0.1329 
     78 H78       -79.6982   29.3157  -72.7122 H         1 UNK         0.1335 
     79 H79       -77.5582   29.9717  -74.4645 H         1 UNK         0.0680 
     80 H80       -78.0171   31.1484  -73.2612 H         1 UNK         0.0680 
     81 H81       -74.9892   28.7937  -74.1279 H         1 UNK         0.1032 
     82 H82       -74.9413   29.9051  -75.4554 H         1 UNK         0.1032 
     83 H83       -72.9370   31.0415  -74.1981 H         1 UNK         0.0461 
     84 H84       -71.0650   28.4290  -71.9816 H         1 UNK         0.3453 
     85 H85       -70.8699   28.6160  -73.7067 H         1 UNK         0.3453 
     86 H86       -72.4920   28.4085  -75.5089 H         1 UNK         0.2984 
     87 H87       -71.4888   29.2439  -78.1210 H         1 UNK         0.0554 
     88 H88       -69.0182   29.4058  -78.5054 H         1 UNK         0.0847 
     89 H89       -68.8156   30.1117  -76.9024 H         1 UNK         0.0847 
     90 H90       -69.7252   30.9683  -78.1380 H         1 UNK         0.0847 
     91 H91       -70.9552   27.2047  -77.5201 H         1 UNK         0.3141 
     92 H92       -68.7322   25.6387  -76.0651 H         1 UNK         0.0743 
     93 H93       -68.9430   25.9514  -73.6194 H         1 UNK         0.0784 
     94 H94       -70.6941   25.8140  -73.7103 H         1 UNK         0.0784 
     95 H95       -69.6739   24.4217  -74.0705 H         1 UNK         0.0784 
     96 H96       -71.7097   25.4004  -76.0398 H         1 UNK         0.3213 
     97 H97       -71.7642   24.0311  -79.2527 H         1 UNK         0.0855 
     98 H98       -72.3360   22.3713  -76.7333 H         1 UNK         0.0814 
     99 H99       -71.2958   21.8801  -78.0625 H         1 UNK         0.0814 
    100 H100      -73.0167   22.0875  -78.3365 H         1 UNK         0.0814 
    101 H101      -73.8207   24.2893  -77.2897 H         1 UNK         0.3105 
    102 H102      -74.2194   27.7783  -77.3138 H         1 UNK         0.0547 
    103 H103      -76.4860   27.4093  -78.1622 H         1 UNK         0.0837 
    104 H104      -75.3592   27.1645  -79.4798 H         1 UNK         0.0837 
    105 H105      -76.0860   25.7741  -78.6845 H         1 UNK         0.0837 
    106 H106      -75.8943   25.7900  -76.2121 H         1 UNK         0.3020 
    107 H107      -74.3069   24.3475  -73.8990 H         1 UNK         0.1245 
    108 H108      -74.4689   27.0848  -72.6092 H         1 UNK         0.0781 
    109 H109      -73.2119   25.9065  -72.4628 H         1 UNK         0.0781 
    110 H110      -74.8028   27.4851  -70.0553 H         1 UNK         0.0836 
    111 H111      -75.9570   26.5113  -69.1855 H         1 UNK         0.0836 
    112 H112      -76.7750   25.9088  -73.5515 H         1 UNK         0.3022 
    113 H113      -78.6990   23.5463  -75.3658 H         1 UNK         0.0747 
    114 H114      -79.9759   23.3132  -73.2603 H         1 UNK         0.0793 
    115 H115      -78.4743   22.4150  -73.1493 H         1 UNK         0.0793 
    116 H116      -78.6208   23.9626  -72.3307 H         1 UNK         0.0793 
    117 H117      -79.5060   25.7935  -73.8263 H         1 UNK         0.3047 
    118 H118      -79.1857   28.1065  -74.7186 H         1 UNK         0.0822 
    119 H119      -77.9839   28.6916  -76.8212 H         1 UNK         0.0807 
    120 H120      -79.5186   29.5299  -76.7381 H         1 UNK         0.0807 
    121 H121      -79.3447   28.1199  -77.7811 H         1 UNK         0.0807 
    122 H122      -81.2555   26.5261  -75.9343 H         1 UNK         0.2946 
    123 H123      -83.9125   28.7687  -74.9808 H         1 UNK         0.1144 
    124 H124      -83.5533   28.4760  -77.4360 H         1 UNK         0.0793 
    125 H125      -84.8047   27.4022  -76.8342 H         1 UNK         0.0793 
    126 H126      -83.2037   26.7687  -77.2019 H         1 UNK         0.0793 
    127 H127      -83.3328   25.8551  -74.8871 H         1 UNK         0.2896 
@<TRIPOS>BOND
     1    1    2 1    
     2    1   67 1    
     3    1   68 1    
     4    1   69 1    
     5    2    3 2    
     6    2    4 am   BACKBONE|DICT|INTERRES
     7    4    5 1    
     8    4   70 1    
     9    5    6 1    
    10    5   65 1    
    11    5   71 1    
    12    6    7 1    
    13    6   72 1    
    14    6   73 1    
    15    7    8 1    
    16    8    9 1    
    17    8   74 1    
    18    8   75 1    
    19    9   10 ar   
    20    9   14 ar   
    21   10   11 ar   
    22   10   76 1    
    23   11   12 ar   
    24   11   48 1    
    25   12   13 ar   
    26   12   77 1    
    27   13   14 ar   
    28   13   15 1    
    29   14   78 1    
    30   15   16 1    
    31   15   79 1    
    32   15   80 1    
    33   16   17 1    
    34   17   18 1    
    35   17   81 1    
    36   17   82 1    
    37   18   19 1    
    38   18   22 1    
    39   18   83 1    
    40   19   20 am   BACKBONE|DICT|INTERRES
    41   19   21 2    
    42   20   84 1    
    43   20   85 1    
    44   22   23 am   BACKBONE|DICT|INTERRES
    45   22   86 1    
    46   23   24 2    
    47   23   25 1    
    48   25   26 1    
    49   25   27 1    
    50   25   87 1    
    51   26   88 1    
    52   26   89 1    
    53   26   90 1    
    54   27   28 am   BACKBONE|DICT|INTERRES
    55   27   91 1    
    56   28   29 2    
    57   28   30 1    
    58   30   31 1    
    59   30   32 1    
    60   30   92 1    
    61   31   93 1    
    62   31   94 1    
    63   31   95 1    
    64   32   33 am   BACKBONE|DICT|INTERRES
    65   32   96 1    
    66   33   34 2    
    67   33   35 1    
    68   35   36 1    
    69   35   37 1    
    70   35   97 1    
    71   36   98 1    
    72   36   99 1    
    73   36  100 1    
    74   37   38 am   BACKBONE|DICT|INTERRES
    75   37  101 1    
    76   38   39 2    
    77   38   40 1    
    78   40   41 1    
    79   40   42 1    
    80   40  102 1    
    81   41  103 1    
    82   41  104 1    
    83   41  105 1    
    84   42   43 am   BACKBONE|DICT|INTERRES
    85   42  106 1    
    86   43   44 2    
    87   43   45 1    
    88   45   46 1    
    89   45   49 1    
    90   45  107 1    
    91   46   47 1    
    92   46  108 1    
    93   46  109 1    
    94   47   48 1    
    95   48  110 1    
    96   48  111 1    
    97   49   50 am   BACKBONE|DICT|INTERRES
    98   49  112 1    
    99   50   51 2    
   100   50   52 1    
   101   52   53 1    
   102   52   54 1    
   103   52  113 1    
   104   53  114 1    
   105   53  115 1    
   106   53  116 1    
   107   54   55 am   BACKBONE|DICT|INTERRES
   108   54  117 1    
   109   55   56 2    
   110   55   57 1    
   111   57   58 1    
   112   57   59 1    
   113   57  118 1    
   114   58  119 1    
   115   58  120 1    
   116   58  121 1    
   117   59   60 am   BACKBONE|DICT|INTERRES
   118   59  122 1    
   119   60   61 2    
   120   60   62 1    
   121   62   63 1    
   122   62   64 1    
   123   62  123 1    
   124   63  124 1    
   125   63  125 1    
   126   63  126 1    
   127   64   65 am   BACKBONE|DICT|INTERRES
   128   64  127 1    
   129   65   66 2    
@<TRIPOS>SUBSTRUCTURE
     1 UNK         1 GROUP             0       ****    0 ROOT    
