@<TRIPOS>MOLECULE
3R135
127   129    1
SMALL
USER_CHARGES


@<TRIPOS>ATOM
      1 CA        -79.0308   23.2047  -70.6914 C.3       0 UNK        -0.1998 
      2 C         -79.9324   24.0589  -71.5687 C.2       0 UNK         0.4909 
      3 O         -80.7874   23.5187  -72.2723 O.2       0 UNK        -0.5240 
      4 N         -79.7448   25.3865  -71.5359 N.am      1 UNK        -0.4739 
      5 CA        -80.4858   26.3765  -72.3274 C.3       1 UNK         0.0864 
      6 C6        -79.9813   27.8169  -72.0826 C.3       11 UNK        -0.0881 
      7 S7        -80.0231   28.3737  -70.3494 S.3       11 UNK        -0.2682 
      8 C8        -80.0212   30.1844  -70.5843 C.3       11 UNK         0.0289 
      9 C9        -78.7965   30.6665  -71.3550 C.ar      11 UNK        -0.0687 
     10 C10       -78.8437   30.7895  -72.7479 C.ar      11 UNK        -0.0823 
     11 C11       -77.7214   31.2080  -73.4659 C.ar      11 UNK        -0.0830 
     12 C12       -76.5496   31.5307  -72.7753 C.ar      11 UNK        -0.1021 
     13 C13       -76.4878   31.4288  -71.3812 C.ar      11 UNK        -0.0753 
     14 C14       -77.6201   30.9992  -70.6771 C.ar      11 UNK        -0.0933 
     15 C15       -75.2034   31.8384  -70.6633 C.3       11 UNK         0.0166 
     16 S16       -74.7692   30.8342  -69.2001 S.3       11 UNK        -0.2615 
     17 C17       -74.7525   29.1178  -69.8236 C.3       11 UNK        -0.0865 
     18 CA        -73.4872   28.7730  -70.6528 C.3       10 UNK         0.0862 
     19 C         -73.2329   27.2413  -70.6545 C.2       10 UNK         0.5551 
     20 N         -72.1761   26.7814  -69.9989 N.am      10 UNK        -0.7319 
     21 O         -74.0168   26.4694  -71.2007 O.2       10 UNK        -0.5018 
     22 N         -73.6091   29.2901  -72.0209 N.am      10 UNK        -0.4509 
     23 C         -72.6199   29.3445  -72.9184 C.2       10 UNK         0.4899 
     24 O         -71.4400   29.0837  -72.6731 O.2       10 UNK        -0.4839 
     25 CA        -73.0244   29.8143  -74.3263 C.3       9 UNK         0.0222 
     26 CB        -72.7578   31.3192  -74.4923 C.3       9 UNK        -0.1966 
     27 N         -72.3399   29.0790  -75.3941 N.am      9 UNK        -0.4218 
     28 C         -72.4548   27.7619  -75.6080 C.2       9 UNK         0.5020 
     29 O         -73.1332   27.0081  -74.9103 O.2       9 UNK        -0.5274 
     30 CA        -71.6749   27.1829  -76.7915 C.3       8 UNK         0.0270 
     31 CB        -70.2984   26.6656  -76.3297 C.3       8 UNK        -0.1976 
     32 N         -72.4566   26.1018  -77.3935 N.am      8 UNK        -0.4313 
     33 C         -72.2539   25.5964  -78.6176 C.2       8 UNK         0.5041 
     34 O         -71.3709   25.9886  -79.3822 O.2       8 UNK        -0.5577 
     35 CA        -73.1977   24.4779  -79.0818 C.3       7 UNK         0.0284 
     36 CB        -72.9763   23.1874  -78.2734 C.3       7 UNK        -0.1958 
     37 N         -74.5912   24.9059  -78.9700 N.am      7 UNK        -0.4454 
     38 C         -75.3096   25.4356  -79.9709 C.2       7 UNK         0.5089 
     39 O         -74.8986   25.5401  -81.1272 O.2       7 UNK        -0.5125 
     40 CA        -76.7302   25.9401  -79.6407 C.3       6 UNK         0.0408 
     41 CB        -77.7723   24.8631  -79.9801 C.3       6 UNK        -0.1791 
     42 N         -76.9021   26.3487  -78.2449 N.am      6 UNK        -0.4762 
     43 C         -76.2605   27.3707  -77.6581 C.2       6 UNK         0.5007 
     44 O         -75.5300   28.1511  -78.2692 O.2       6 UNK        -0.5032 
     45 CA        -76.4056   27.5014  -76.1252 C.3       5 UNK         0.0783 
     46 C46       -77.3805   28.6352  -75.7096 C.3       11 UNK        -0.0857 
     47 S47       -76.6088   30.2831  -75.8554 S.3       11 UNK        -0.2512 
     48 C48       -77.7920   31.3571  -74.9812 C.3       11 UNK         0.0225 
     49 N         -76.7305   26.2328  -75.4588 N.am      5 UNK        -0.4615 
     50 C         -75.9627   25.1328  -75.4526 C.2       4 UNK         0.5053 
     51 O         -74.9488   25.0011  -76.1376 O.2       4 UNK        -0.5105 
     52 CA        -76.4184   23.9735  -74.5614 C.3       4 UNK         0.0263 
     53 CB        -76.3119   24.3553  -73.0757 C.3       4 UNK        -0.1981 
     54 N         -77.7930   23.5805  -74.8691 N.am      4 UNK        -0.4224 
     55 C         -78.1380   22.4861  -75.5624 C.2       3 UNK         0.4895 
     56 O         -77.3240   21.7000  -76.0480 O.2       3 UNK        -0.5091 
     57 CA        -79.6400   22.1880  -75.7317 C.3       3 UNK         0.0250 
     58 CB        -80.0713   21.0622  -74.7771 C.3       3 UNK        -0.1996 
     59 N         -80.4943   23.3558  -75.5072 N.am      3 UNK        -0.4254 
     60 C         -80.6827   24.3336  -76.4051 C.2       2 UNK         0.5004 
     61 O         -80.1963   24.3252  -77.5357 O.2       2 UNK        -0.5226 
     62 CA        -81.5262   25.5450  -75.9617 C.3       2 UNK         0.0269 
     63 CB        -82.9891   25.3684  -76.3988 C.3       2 UNK        -0.1926 
     64 N         -81.4814   25.8282  -74.5203 N.am      2 UNK        -0.4687 
     65 C         -80.3598   26.0783  -73.8321 C.2       1 UNK         0.5165 
     66 O         -79.2362   26.0682  -74.3370 O.2       1 UNK        -0.5079 
     67 H67       -78.5545   22.4280  -71.2889 H         1 UNK         0.0900 
     68 H68       -78.2478   23.7947  -70.2154 H         1 UNK         0.0900 
     69 H69       -79.6174   22.7218  -69.9105 H         1 UNK         0.0900 
     70 H70       -79.0341   25.7726  -70.9312 H         1 UNK         0.2959 
     71 H71       -81.5364   26.3157  -72.0362 H         1 UNK         0.1079 
     72 H72       -80.5875   28.5077  -72.6708 H         1 UNK         0.0837 
     73 H73       -78.9522   27.9288  -72.4325 H         1 UNK         0.0837 
     74 H74       -80.9346   30.4826  -71.1015 H         1 UNK         0.0685 
     75 H75       -80.0571   30.6663  -69.6061 H         1 UNK         0.0685 
     76 H76       -79.7579   30.5589  -73.2763 H         1 UNK         0.1434 
     77 H77       -75.6895   31.8782  -73.3307 H         1 UNK         0.1329 
     78 H78       -77.5892   30.9228  -69.5991 H         1 UNK         0.1335 
     79 H79       -74.3575   31.8277  -71.3512 H         1 UNK         0.0680 
     80 H80       -75.3124   32.8748  -70.3417 H         1 UNK         0.0680 
     81 H81       -74.8086   28.4832  -68.9366 H         1 UNK         0.1032 
     82 H82       -75.6642   28.9052  -70.3847 H         1 UNK         0.1032 
     83 H83       -72.6271   29.2609  -70.1889 H         1 UNK         0.0461 
     84 H84       -71.5320   27.4096  -69.5440 H         1 UNK         0.3453 
     85 H85       -72.0084   25.7879  -69.9759 H         1 UNK         0.3453 
     86 H86       -74.5474   29.5086  -72.3205 H         1 UNK         0.2984 
     87 H87       -74.0947   29.6407  -74.4490 H         1 UNK         0.0554 
     88 H88       -73.2501   31.8954  -73.7083 H         1 UNK         0.0847 
     89 H89       -73.1365   31.6866  -75.4464 H         1 UNK         0.0847 
     90 H90       -71.6925   31.5479  -74.4400 H         1 UNK         0.0847 
     91 H91       -71.7272   29.6164  -75.9902 H         1 UNK         0.3141 
     92 H92       -71.5372   27.9695  -77.5366 H         1 UNK         0.0743 
     93 H93       -70.3987   25.8496  -75.6128 H         1 UNK         0.0784 
     94 H94       -69.7028   26.3038  -77.1678 H         1 UNK         0.0784 
     95 H95       -69.7249   27.4571  -75.8454 H         1 UNK         0.0784 
     96 H96       -73.2211   25.7535  -76.8158 H         1 UNK         0.3213 
     97 H97       -72.9624   24.2540  -80.1248 H         1 UNK         0.0855 
     98 H98       -73.1845   23.3228  -77.2119 H         1 UNK         0.0814 
     99 H99       -71.9434   22.8480  -78.3607 H         1 UNK         0.0814 
    100 H100      -73.6137   22.3811  -78.6365 H         1 UNK         0.0814 
    101 H101      -74.9808   24.9068  -78.0310 H         1 UNK         0.3105 
    102 H102      -76.9230   26.8120  -80.2692 H         1 UNK         0.0547 
    103 H103      -77.6822   24.5446  -81.0196 H         1 UNK         0.0837 
    104 H104      -77.6561   23.9763  -79.3554 H         1 UNK         0.0837 
    105 H105      -78.7877   25.2360  -79.8446 H         1 UNK         0.0837 
    106 H106      -77.4836   25.7588  -77.6661 H         1 UNK         0.3020 
    107 H107      -75.4167   27.7723  -75.7559 H         1 UNK         0.1245 
    108 H108      -77.6739   28.5093  -74.6660 H         1 UNK         0.0781 
    109 H109      -78.3046   28.6028  -76.2898 H         1 UNK         0.0781 
    110 H110      -78.7982   31.1568  -75.3528 H         1 UNK         0.0836 
    111 H111      -77.5747   32.3946  -75.2386 H         1 UNK         0.0836 
    112 H112      -77.5998   26.2224  -74.9268 H         1 UNK         0.3022 
    113 H113      -75.7365   23.1382  -74.7350 H         1 UNK         0.0747 
    114 H114      -76.5367   23.5043  -72.4337 H         1 UNK         0.0793 
    115 H115      -75.3002   24.6833  -72.8327 H         1 UNK         0.0793 
    116 H116      -76.9891   25.1672  -72.8086 H         1 UNK         0.0793 
    117 H117      -78.5212   24.2202  -74.5714 H         1 UNK         0.3047 
    118 H118      -79.7892   21.8387  -76.7559 H         1 UNK         0.0822 
    119 H119      -81.1200   20.8007  -74.9191 H         1 UNK         0.0807 
    120 H120      -79.9337   21.3431  -73.7323 H         1 UNK         0.0807 
    121 H121      -79.4867   20.1576  -74.9504 H         1 UNK         0.0807 
    122 H122      -80.9061   23.4514  -74.5863 H         1 UNK         0.2946 
    123 H123      -81.1176   26.4172  -76.4773 H         1 UNK         0.1144 
    124 H124      -83.5768   26.2632  -76.1929 H         1 UNK         0.0793 
    125 H125      -83.4637   24.5284  -75.8900 H         1 UNK         0.0793 
    126 H126      -83.0562   25.1798  -77.4714 H         1 UNK         0.0793 
    127 H127      -82.3662   25.8278  -74.0328 H         1 UNK         0.2896 
@<TRIPOS>BOND
     1    1    2 1    
     2    1   67 1    
     3    1   68 1    
     4    1   69 1    
     5    2    3 2    
     6    2    4 am   BACKBONE|DICT|INTERRES
     7    4    5 1    
     8    4   70 1    
     9    5    6 1    
    10    5   65 1    
    11    5   71 1    
    12    6    7 1    
    13    6   72 1    
    14    6   73 1    
    15    7    8 1    
    16    8    9 1    
    17    8   74 1    
    18    8   75 1    
    19    9   10 ar   
    20    9   14 ar   
    21   10   11 ar   
    22   10   76 1    
    23   11   12 ar   
    24   11   48 1    
    25   12   13 ar   
    26   12   77 1    
    27   13   14 ar   
    28   13   15 1    
    29   14   78 1    
    30   15   16 1    
    31   15   79 1    
    32   15   80 1    
    33   16   17 1    
    34   17   18 1    
    35   17   81 1    
    36   17   82 1    
    37   18   19 1    
    38   18   22 1    
    39   18   83 1    
    40   19   20 am   BACKBONE|DICT|INTERRES
    41   19   21 2    
    42   20   84 1    
    43   20   85 1    
    44   22   23 am   BACKBONE|DICT|INTERRES
    45   22   86 1    
    46   23   24 2    
    47   23   25 1    
    48   25   26 1    
    49   25   27 1    
    50   25   87 1    
    51   26   88 1    
    52   26   89 1    
    53   26   90 1    
    54   27   28 am   BACKBONE|DICT|INTERRES
    55   27   91 1    
    56   28   29 2    
    57   28   30 1    
    58   30   31 1    
    59   30   32 1    
    60   30   92 1    
    61   31   93 1    
    62   31   94 1    
    63   31   95 1    
    64   32   33 am   BACKBONE|DICT|INTERRES
    65   32   96 1    
    66   33   34 2    
    67   33   35 1    
    68   35   36 1    
    69   35   37 1    
    70   35   97 1    
    71   36   98 1    
    72   36   99 1    
    73   36  100 1    
    74   37   38 am   BACKBONE|DICT|INTERRES
    75   37  101 1    
    76   38   39 2    
    77   38   40 1    
    78   40   41 1    
    79   40   42 1    
    80   40  102 1    
    81   41  103 1    
    82   41  104 1    
    83   41  105 1    
    84   42   43 am   BACKBONE|DICT|INTERRES
    85   42  106 1    
    86   43   44 2    
    87   43   45 1    
    88   45   46 1    
    89   45   49 1    
    90   45  107 1    
    91   46   47 1    
    92   46  108 1    
    93   46  109 1    
    94   47   48 1    
    95   48  110 1    
    96   48  111 1    
    97   49   50 am   BACKBONE|DICT|INTERRES
    98   49  112 1    
    99   50   51 2    
   100   50   52 1    
   101   52   53 1    
   102   52   54 1    
   103   52  113 1    
   104   53  114 1    
   105   53  115 1    
   106   53  116 1    
   107   54   55 am   BACKBONE|DICT|INTERRES
   108   54  117 1    
   109   55   56 2    
   110   55   57 1    
   111   57   58 1    
   112   57   59 1    
   113   57  118 1    
   114   58  119 1    
   115   58  120 1    
   116   58  121 1    
   117   59   60 am   BACKBONE|DICT|INTERRES
   118   59  122 1    
   119   60   61 2    
   120   60   62 1    
   121   62   63 1    
   122   62   64 1    
   123   62  123 1    
   124   63  124 1    
   125   63  125 1    
   126   63  126 1    
   127   64   65 am   BACKBONE|DICT|INTERRES
   128   64  127 1    
   129   65   66 2    
@<TRIPOS>SUBSTRUCTURE
     1 UNK         1 GROUP             0       ****    0 ROOT    
