@<TRIPOS>MOLECULE
3R135
127   129    1
SMALL
USER_CHARGES


@<TRIPOS>ATOM
      1 CA        -80.1905   33.3900  -74.7084 C.3       0 UNK        -0.1998 
      2 C         -80.7628   32.0268  -74.3481 C.2       0 UNK         0.4909 
      3 O         -81.9650   31.8114  -74.5069 O.2       0 UNK        -0.5240 
      4 N         -79.9068   31.1197  -73.8576 N.am      1 UNK        -0.4739 
      5 CA        -80.1931   29.7262  -73.4951 C.3       1 UNK         0.0864 
      6 C6        -81.3282   29.6082  -72.4381 C.3       11 UNK        -0.0881 
      7 S7        -81.2204   28.1220  -71.3827 S.3       11 UNK        -0.2682 
      8 C8        -80.1361   28.6758  -70.0276 C.3       11 UNK         0.0289 
      9 C9        -78.7186   28.1557  -70.2111 C.ar      11 UNK        -0.0687 
     10 C10       -78.4238   26.8284  -69.8874 C.ar      11 UNK        -0.0823 
     11 C11       -77.1317   26.3216  -70.0566 C.ar      11 UNK        -0.0830 
     12 C12       -76.1237   27.1682  -70.5279 C.ar      11 UNK        -0.1021 
     13 C13       -76.4020   28.4999  -70.8521 C.ar      11 UNK        -0.0753 
     14 C14       -77.7034   28.9888  -70.6913 C.ar      11 UNK        -0.0933 
     15 C15       -75.2956   29.4149  -71.3666 C.3       11 UNK         0.0166 
     16 S16       -74.5661   28.8387  -72.9372 S.3       11 UNK        -0.2615 
     17 C17       -76.0151   28.8324  -74.0477 C.3       11 UNK        -0.0865 
     18 CA        -76.0323   29.9779  -75.0933 C.3       10 UNK         0.0862 
     19 C         -76.2021   31.3806  -74.4374 C.2       10 UNK         0.5551 
     20 N         -75.3243   32.3455  -74.6800 N.am      10 UNK        -0.7319 
     21 O         -77.1587   31.5955  -73.6985 O.2       10 UNK        -0.5018 
     22 N         -74.9162   29.8646  -76.0460 N.am      10 UNK        -0.4509 
     23 C         -74.9354   30.3422  -77.2985 C.2       10 UNK         0.4899 
     24 O         -75.9114   30.8993  -77.8012 O.2       10 UNK        -0.4839 
     25 CA        -73.6528   30.1943  -78.1403 C.3       9 UNK         0.0222 
     26 CB        -72.8774   31.5221  -78.1663 C.3       9 UNK        -0.1966 
     27 N         -72.7540   29.1218  -77.6995 N.am      9 UNK        -0.4218 
     28 C         -73.0329   27.8135  -77.7704 C.2       9 UNK         0.5020 
     29 O         -74.0905   27.3676  -78.2170 O.2       9 UNK        -0.5274 
     30 CA        -71.9521   26.8468  -77.2642 C.3       8 UNK         0.0270 
     31 CB        -71.2886   27.3217  -75.9537 C.3       8 UNK        -0.1976 
     32 N         -72.5490   25.5313  -77.0524 N.am      8 UNK        -0.4313 
     33 C         -71.9402   24.3534  -77.2291 C.2       8 UNK         0.5041 
     34 O         -70.7949   24.2248  -77.6671 O.2       8 UNK        -0.5577 
     35 CA        -72.7526   23.1231  -76.7822 C.3       7 UNK         0.0284 
     36 CB        -71.9830   21.7900  -76.8964 C.3       7 UNK        -0.1958 
     37 N         -73.2844   23.3346  -75.4299 N.am      7 UNK        -0.4454 
     38 C         -72.5834   23.5122  -74.2981 C.2       7 UNK         0.5089 
     39 O         -71.3752   23.3021  -74.1887 O.2       7 UNK        -0.5125 
     40 CA        -73.3461   24.0716  -73.0857 C.3       6 UNK         0.0408 
     41 CB        -73.0081   25.5594  -72.9078 C.3       6 UNK        -0.1791 
     42 N         -74.7981   23.9342  -73.2241 N.am      6 UNK        -0.4762 
     43 C         -75.5242   22.9591  -72.6602 C.2       6 UNK         0.5007 
     44 O         -75.0578   22.0925  -71.9196 O.2       6 UNK        -0.5032 
     45 CA        -77.0260   22.9356  -73.0173 C.3       5 UNK         0.0783 
     46 C46       -77.8163   24.0217  -72.2469 C.3       11 UNK        -0.0857 
     47 S47       -77.9905   23.6777  -70.4637 S.3       11 UNK        -0.2512 
     48 C48       -76.8138   24.8658  -69.7259 C.3       11 UNK         0.0225 
     49 N         -77.2387   23.0732  -74.4615 N.am      5 UNK        -0.4615 
     50 C         -76.7763   22.2454  -75.4092 C.2       4 UNK         0.5053 
     51 O         -76.1864   21.1929  -75.1693 O.2       4 UNK        -0.5105 
     52 CA        -76.9869   22.6649  -76.8766 C.3       4 UNK         0.0263 
     53 CB        -78.0646   21.7885  -77.5347 C.3       4 UNK        -0.1981 
     54 N         -77.3497   24.0740  -77.0600 N.am      4 UNK        -0.4224 
     55 C         -76.5933   25.1415  -76.7755 C.2       3 UNK         0.4895 
     56 O         -75.4663   25.0713  -76.2797 O.2       3 UNK        -0.5091 
     57 CA        -77.2363   26.5168  -77.0234 C.3       3 UNK         0.0250 
     58 CB        -77.4173   26.8034  -78.5285 C.3       3 UNK        -0.1996 
     59 N         -78.4881   26.7165  -76.2705 N.am      3 UNK        -0.4254 
     60 C         -79.6772   26.1184  -76.4517 C.2       2 UNK         0.5004 
     61 O         -79.8834   25.2669  -77.3180 O.2       2 UNK        -0.5226 
     62 CA        -80.8306   26.4854  -75.4962 C.3       2 UNK         0.0269 
     63 CB        -81.3427   25.2344  -74.7607 C.3       2 UNK        -0.1926 
     64 N         -80.5188   27.5138  -74.4966 N.am      2 UNK        -0.4687 
     65 C         -80.4077   28.8262  -74.7369 C.2       1 UNK         0.5165 
     66 O         -80.4385   29.3026  -75.8737 O.2       1 UNK        -0.5079 
     67 H67       -80.3339   33.5874  -75.7703 H         1 UNK         0.0900 
     68 H68       -80.6977   34.1717  -74.1437 H         1 UNK         0.0900 
     69 H69       -79.1239   33.4543  -74.4929 H         1 UNK         0.0900 
     70 H70       -78.9241   31.3795  -73.7749 H         1 UNK         0.2959 
     71 H71       -79.2704   29.3759  -73.0339 H         1 UNK         0.1079 
     72 H72       -82.3069   29.6164  -72.9218 H         1 UNK         0.0837 
     73 H73       -81.3282   30.4823  -71.7851 H         1 UNK         0.0837 
     74 H74       -80.1432   29.7632  -69.9425 H         1 UNK         0.0685 
     75 H75       -80.5372   28.2991  -69.0855 H         1 UNK         0.0685 
     76 H76       -79.2089   26.1830  -69.5171 H         1 UNK         0.1434 
     77 H77       -75.1178   26.7932  -70.6497 H         1 UNK         0.1329 
     78 H78       -77.9258   30.0182  -70.9384 H         1 UNK         0.1335 
     79 H79       -74.5071   29.4719  -70.6152 H         1 UNK         0.0680 
     80 H80       -75.6635   30.4332  -71.5007 H         1 UNK         0.0680 
     81 H81       -76.9352   28.8452  -73.4648 H         1 UNK         0.1032 
     82 H82       -76.0161   27.8674  -74.5522 H         1 UNK         0.1032 
     83 H83       -76.9485   29.8349  -75.6703 H         1 UNK         0.0461 
     84 H84       -74.5352   32.1784  -75.2818 H         1 UNK         0.3453 
     85 H85       -75.4507   33.2468  -74.2479 H         1 UNK         0.3453 
     86 H86       -74.0696   29.4458  -75.6914 H         1 UNK         0.2984 
     87 H87       -73.9647   29.9654  -79.1616 H         1 UNK         0.0554 
     88 H88       -73.5117   32.3390  -78.5141 H         1 UNK         0.0847 
     89 H89       -72.0238   31.4709  -78.8425 H         1 UNK         0.0847 
     90 H90       -72.5075   31.7960  -77.1776 H         1 UNK         0.0847 
     91 H91       -71.8587   29.4045  -77.3274 H         1 UNK         0.3141 
     92 H92       -71.1935   26.7777  -78.0465 H         1 UNK         0.0743 
     93 H93       -72.0284   27.5521  -75.1863 H         1 UNK         0.0784 
     94 H94       -70.6206   26.5603  -75.5498 H         1 UNK         0.0784 
     95 H95       -70.6854   28.2161  -76.1106 H         1 UNK         0.0784 
     96 H96       -73.5319   25.5408  -76.7901 H         1 UNK         0.3213 
     97 H97       -73.6133   23.0640  -77.4499 H         1 UNK         0.0855 
     98 H98       -71.0631   21.7949  -76.3114 H         1 UNK         0.0814 
     99 H99       -71.7038   21.5932  -77.9321 H         1 UNK         0.0814 
    100 H100      -72.5920   20.9516  -76.5586 H         1 UNK         0.0814 
    101 H101      -74.2611   23.5982  -75.4034 H         1 UNK         0.3105 
    102 H102      -72.9950   23.5374  -72.2004 H         1 UNK         0.0547 
    103 H103      -71.9305   25.7153  -72.8398 H         1 UNK         0.0837 
    104 H104      -73.3716   26.1552  -73.7452 H         1 UNK         0.0837 
    105 H105      -73.4467   25.9589  -71.9951 H         1 UNK         0.0837 
    106 H106      -75.2617   24.5972  -73.8305 H         1 UNK         0.3020 
    107 H107      -77.4128   21.9547  -72.7308 H         1 UNK         0.1245 
    108 H108      -78.8321   24.0783  -72.6391 H         1 UNK         0.0781 
    109 H109      -77.3873   25.0118  -72.4098 H         1 UNK         0.0781 
    110 H110      -75.8056   24.6059  -70.0525 H         1 UNK         0.0836 
    111 H111      -76.8255   24.7433  -68.6422 H         1 UNK         0.0836 
    112 H112      -77.7291   23.8995  -74.7666 H         1 UNK         0.3022 
    113 H113      -76.0428   22.4962  -77.3977 H         1 UNK         0.0747 
    114 H114      -78.1608   22.0097  -78.5979 H         1 UNK         0.0793 
    115 H115      -77.8175   20.7294  -77.4474 H         1 UNK         0.0793 
    116 H116      -79.0413   21.9360  -77.0717 H         1 UNK         0.0793 
    117 H117      -78.2918   24.2652  -77.3955 H         1 UNK         0.3047 
    118 H118      -76.5292   27.2598  -76.6561 H         1 UNK         0.0822 
    119 H119      -78.1203   26.1214  -79.0062 H         1 UNK         0.0807 
    120 H120      -76.4711   26.7040  -79.0607 H         1 UNK         0.0807 
    121 H121      -77.7729   27.8205  -78.6934 H         1 UNK         0.0807 
    122 H122      -78.4401   27.3877  -75.5192 H         1 UNK         0.2946 
    123 H123      -81.6403   26.8625  -76.1253 H         1 UNK         0.1144 
    124 H124      -82.2103   25.4654  -74.1420 H         1 UNK         0.0793 
    125 H125      -80.5772   24.8029  -74.1163 H         1 UNK         0.0793 
    126 H126      -81.6507   24.4596  -75.4644 H         1 UNK         0.0793 
    127 H127      -80.4980   27.2094  -73.5312 H         1 UNK         0.2896 
@<TRIPOS>BOND
     1    1    2 1    
     2    1   67 1    
     3    1   68 1    
     4    1   69 1    
     5    2    3 2    
     6    2    4 am   BACKBONE|DICT|INTERRES
     7    4    5 1    
     8    4   70 1    
     9    5    6 1    
    10    5   65 1    
    11    5   71 1    
    12    6    7 1    
    13    6   72 1    
    14    6   73 1    
    15    7    8 1    
    16    8    9 1    
    17    8   74 1    
    18    8   75 1    
    19    9   10 ar   
    20    9   14 ar   
    21   10   11 ar   
    22   10   76 1    
    23   11   12 ar   
    24   11   48 1    
    25   12   13 ar   
    26   12   77 1    
    27   13   14 ar   
    28   13   15 1    
    29   14   78 1    
    30   15   16 1    
    31   15   79 1    
    32   15   80 1    
    33   16   17 1    
    34   17   18 1    
    35   17   81 1    
    36   17   82 1    
    37   18   19 1    
    38   18   22 1    
    39   18   83 1    
    40   19   20 am   BACKBONE|DICT|INTERRES
    41   19   21 2    
    42   20   84 1    
    43   20   85 1    
    44   22   23 am   BACKBONE|DICT|INTERRES
    45   22   86 1    
    46   23   24 2    
    47   23   25 1    
    48   25   26 1    
    49   25   27 1    
    50   25   87 1    
    51   26   88 1    
    52   26   89 1    
    53   26   90 1    
    54   27   28 am   BACKBONE|DICT|INTERRES
    55   27   91 1    
    56   28   29 2    
    57   28   30 1    
    58   30   31 1    
    59   30   32 1    
    60   30   92 1    
    61   31   93 1    
    62   31   94 1    
    63   31   95 1    
    64   32   33 am   BACKBONE|DICT|INTERRES
    65   32   96 1    
    66   33   34 2    
    67   33   35 1    
    68   35   36 1    
    69   35   37 1    
    70   35   97 1    
    71   36   98 1    
    72   36   99 1    
    73   36  100 1    
    74   37   38 am   BACKBONE|DICT|INTERRES
    75   37  101 1    
    76   38   39 2    
    77   38   40 1    
    78   40   41 1    
    79   40   42 1    
    80   40  102 1    
    81   41  103 1    
    82   41  104 1    
    83   41  105 1    
    84   42   43 am   BACKBONE|DICT|INTERRES
    85   42  106 1    
    86   43   44 2    
    87   43   45 1    
    88   45   46 1    
    89   45   49 1    
    90   45  107 1    
    91   46   47 1    
    92   46  108 1    
    93   46  109 1    
    94   47   48 1    
    95   48  110 1    
    96   48  111 1    
    97   49   50 am   BACKBONE|DICT|INTERRES
    98   49  112 1    
    99   50   51 2    
   100   50   52 1    
   101   52   53 1    
   102   52   54 1    
   103   52  113 1    
   104   53  114 1    
   105   53  115 1    
   106   53  116 1    
   107   54   55 am   BACKBONE|DICT|INTERRES
   108   54  117 1    
   109   55   56 2    
   110   55   57 1    
   111   57   58 1    
   112   57   59 1    
   113   57  118 1    
   114   58  119 1    
   115   58  120 1    
   116   58  121 1    
   117   59   60 am   BACKBONE|DICT|INTERRES
   118   59  122 1    
   119   60   61 2    
   120   60   62 1    
   121   62   63 1    
   122   62   64 1    
   123   62  123 1    
   124   63  124 1    
   125   63  125 1    
   126   63  126 1    
   127   64   65 am   BACKBONE|DICT|INTERRES
   128   64  127 1    
   129   65   66 2    
@<TRIPOS>SUBSTRUCTURE
     1 UNK         1 GROUP             0       ****    0 ROOT    
