@<TRIPOS>MOLECULE
3R135
127   129    1
SMALL
USER_CHARGES


@<TRIPOS>ATOM
      1 CA        -83.0085   23.4837  -73.2120 C.3       0 UNK        -0.1998 
      2 C         -81.6545   23.3405  -72.5230 C.2       0 UNK         0.4909 
      3 O         -81.1702   22.2212  -72.3738 O.2       0 UNK        -0.5240 
      4 N         -81.0057   24.4258  -72.0807 N.am      1 UNK        -0.4739 
      5 CA        -81.3782   25.8303  -72.2683 C.3       1 UNK         0.0864 
      6 C6        -80.8516   26.6821  -71.0892 C.3       11 UNK        -0.0881 
      7 S7        -81.5374   28.3710  -71.0760 S.3       11 UNK        -0.2682 
      8 C8        -80.1986   29.2903  -70.2503 C.3       11 UNK         0.0289 
      9 C9        -78.9449   29.3964  -71.1092 C.ar      11 UNK        -0.0687 
     10 C10       -78.9623   30.1581  -72.2814 C.ar      11 UNK        -0.0823 
     11 C11       -77.8115   30.2916  -73.0643 C.ar      11 UNK        -0.0830 
     12 C12       -76.6302   29.6666  -72.6517 C.ar      11 UNK        -0.1021 
     13 C13       -76.6021   28.8909  -71.4905 C.ar      11 UNK        -0.0753 
     14 C14       -77.7620   28.7576  -70.7217 C.ar      11 UNK        -0.0933 
     15 C15       -75.3095   28.2125  -71.0702 C.3       11 UNK         0.0166 
     16 S16       -74.3188   29.3265  -70.0286 S.3       11 UNK        -0.2615 
     17 C17       -72.6253   28.7319  -70.3555 C.3       11 UNK        -0.0865 
     18 CA        -71.8786   29.6481  -71.3594 C.3       10 UNK         0.0862 
     19 C         -70.3691   29.2898  -71.4189 C.2       10 UNK         0.5551 
     20 N         -69.5574   29.8906  -70.5600 N.am      10 UNK        -0.7319 
     21 O         -69.9360   28.4472  -72.2027 O.2       10 UNK        -0.5018 
     22 N         -72.5022   29.6005  -72.6875 N.am      10 UNK        -0.4509 
     23 C         -72.3126   30.4883  -73.6672 C.2       10 UNK         0.4899 
     24 O         -71.6615   31.5265  -73.5392 O.2       10 UNK        -0.4839 
     25 CA        -72.9412   30.1251  -75.0266 C.3       9 UNK         0.0222 
     26 CB        -72.8908   31.2852  -76.0372 C.3       9 UNK        -0.1966 
     27 N         -72.2940   28.9480  -75.6123 N.am      9 UNK        -0.4218 
     28 C         -72.5074   27.6841  -75.2260 C.2       9 UNK         0.5020 
     29 O         -73.2891   27.3699  -74.3258 O.2       9 UNK        -0.5274 
     30 CA        -71.6832   26.5989  -75.9243 C.3       8 UNK         0.0270 
     31 CB        -70.6517   25.9877  -74.9572 C.3       8 UNK        -0.1976 
     32 N         -72.5834   25.5676  -76.4332 N.am      8 UNK        -0.4313 
     33 C         -72.2909   24.7169  -77.4254 C.2       8 UNK         0.5041 
     34 O         -71.1979   24.6765  -77.9930 O.2       8 UNK        -0.5577 
     35 CA        -73.4069   23.7668  -77.8880 C.3       7 UNK         0.0284 
     36 CB        -73.6313   22.6262  -76.8805 C.3       7 UNK        -0.1958 
     37 N         -74.6562   24.4929  -78.1183 N.am      7 UNK        -0.4454 
     38 C         -74.9344   25.1740  -79.2393 C.2       7 UNK         0.5089 
     39 O         -74.2048   25.1833  -80.2316 O.2       7 UNK        -0.5125 
     40 CA        -76.2428   25.9870  -79.2734 C.3       6 UNK         0.0408 
     41 CB        -77.3716   25.1602  -79.9084 C.3       6 UNK        -0.1791 
     42 N         -76.6768   26.4642  -77.9595 N.am      6 UNK        -0.4762 
     43 C         -76.0117   27.3475  -77.2005 C.2       6 UNK         0.5007 
     44 O         -74.9753   27.9092  -77.5554 O.2       6 UNK        -0.5032 
     45 CA        -76.5871   27.6093  -75.7919 C.3       5 UNK         0.0783 
     46 C46       -77.6924   28.6967  -75.8394 C.3       11 UNK        -0.0857 
     47 S47       -76.9803   30.3760  -75.7603 S.3       11 UNK        -0.2512 
     48 C48       -77.8643   31.1204  -74.3453 C.3       11 UNK         0.0225 
     49 N         -77.0527   26.3821  -75.1319 N.am      5 UNK        -0.4615 
     50 C         -76.3136   25.2834  -74.9159 C.2       4 UNK         0.5053 
     51 O         -75.1328   25.1740  -75.2356 O.2       4 UNK        -0.5105 
     52 CA        -77.0322   24.0673  -74.3174 C.3       4 UNK         0.0263 
     53 CB        -77.1905   24.2044  -72.7937 C.3       4 UNK        -0.1981 
     54 N         -78.3333   23.8687  -74.9575 N.am      4 UNK        -0.4224 
     55 C         -78.4892   23.3723  -76.1947 C.2       3 UNK         0.4895 
     56 O         -77.5628   22.9322  -76.8756 O.2       3 UNK        -0.5091 
     57 CA        -79.9094   23.3932  -76.7895 C.3       3 UNK         0.0250 
     58 CB        -80.6603   22.0998  -76.4348 C.3       3 UNK        -0.1996 
     59 N         -80.7008   24.5487  -76.3590 N.am      3 UNK        -0.4254 
     60 C         -80.4275   25.8240  -76.6713 C.2       2 UNK         0.5004 
     61 O         -79.5107   26.1635  -77.4177 O.2       2 UNK        -0.5226 
     62 CA        -81.2837   26.9042  -75.9819 C.3       2 UNK         0.0269 
     63 CB        -82.5395   27.2082  -76.8134 C.3       2 UNK        -0.1926 
     64 N         -81.6750   26.5599  -74.6066 N.am      2 UNK        -0.4687 
     65 C         -80.8056   26.2917  -73.6211 C.2       1 UNK         0.5165 
     66 O         -79.5844   26.3280  -73.7743 O.2       1 UNK        -0.5079 
     67 H67       -83.3974   22.5040  -73.4897 H         1 UNK         0.0900 
     68 H68       -83.7353   23.9462  -72.5449 H         1 UNK         0.0900 
     69 H69       -82.9352   24.0758  -74.1215 H         1 UNK         0.0900 
     70 H70       -80.1106   24.2871  -71.6341 H         1 UNK         0.2959 
     71 H71       -82.4652   25.9252  -72.2844 H         1 UNK         0.1079 
     72 H72       -79.7606   26.7152  -71.0936 H         1 UNK         0.0837 
     73 H73       -81.1309   26.2163  -70.1427 H         1 UNK         0.0837 
     74 H74       -80.5547   30.2952  -70.0190 H         1 UNK         0.0685 
     75 H75       -79.9775   28.8173  -69.2922 H         1 UNK         0.0685 
     76 H76       -79.8797   30.6462  -72.5813 H         1 UNK         0.1434 
     77 H77       -75.7294   29.7769  -73.2377 H         1 UNK         0.1329 
     78 H78       -77.7378   28.1680  -69.8156 H         1 UNK         0.1335 
     79 H79       -75.5178   27.2916  -70.5234 H         1 UNK         0.0680 
     80 H80       -74.7468   27.9220  -71.9586 H         1 UNK         0.0680 
     81 H81       -72.1021   28.7118  -69.3973 H         1 UNK         0.1032 
     82 H82       -72.6456   27.6982  -70.7067 H         1 UNK         0.1032 
     83 H83       -71.9575   30.6764  -70.9995 H         1 UNK         0.0461 
     84 H84       -69.9033   30.5770  -69.9073 H         1 UNK         0.3453 
     85 H85       -68.5758   29.6611  -70.5714 H         1 UNK         0.3453 
     86 H86       -72.9637   28.7320  -72.9385 H         1 UNK         0.2984 
     87 H87       -73.9931   29.8929  -74.8516 H         1 UNK         0.0554 
     88 H88       -73.3845   32.1714  -75.6363 H         1 UNK         0.0847 
     89 H89       -73.4041   31.0235  -76.9630 H         1 UNK         0.0847 
     90 H90       -71.8666   31.5655  -76.2860 H         1 UNK         0.0847 
     91 H91       -71.6102   29.1258  -76.3339 H         1 UNK         0.3141 
     92 H92       -71.1544   27.0487  -76.7674 H         1 UNK         0.0743 
     93 H93       -71.1373   25.4913  -74.1160 H         1 UNK         0.0784 
     94 H94       -70.0171   25.2563  -75.4576 H         1 UNK         0.0784 
     95 H95       -69.9973   26.7581  -74.5470 H         1 UNK         0.0784 
     96 H96       -73.5068   25.5373  -75.9962 H         1 UNK         0.3213 
     97 H97       -73.0891   23.3119  -78.8290 H         1 UNK         0.0855 
     98 H98       -73.9061   22.9937  -75.8923 H         1 UNK         0.0814 
     99 H99       -72.7241   22.0324  -76.7622 H         1 UNK         0.0814 
    100 H100      -74.4196   21.9518  -77.2157 H         1 UNK         0.0814 
    101 H101      -75.2888   24.5723  -77.3317 H         1 UNK         0.3105 
    102 H102      -76.0687   26.8633  -79.9010 H         1 UNK         0.0547 
    103 H103      -77.0935   24.8204  -80.9069 H         1 UNK         0.0837 
    104 H104      -77.6049   24.2752  -79.3155 H         1 UNK         0.0837 
    105 H105      -78.2856   25.7461  -80.0082 H         1 UNK         0.0837 
    106 H106      -77.5730   26.1213  -77.6221 H         1 UNK         0.3020 
    107 H107      -75.7619   27.9707  -75.1750 H         1 UNK         0.1245 
    108 H108      -78.3833   28.5665  -75.0060 H         1 UNK         0.0781 
    109 H109      -78.3102   28.6129  -76.7357 H         1 UNK         0.0781 
    110 H110      -78.8994   31.2900  -74.6463 H         1 UNK         0.0836 
    111 H111      -77.4375   32.1036  -74.1437 H         1 UNK         0.0836 
    112 H112      -78.0089   26.3881  -74.7862 H         1 UNK         0.3022 
    113 H113      -76.4172   23.1850  -74.5094 H         1 UNK         0.0747 
    114 H114      -77.7197   23.3502  -72.3713 H         1 UNK         0.0793 
    115 H115      -76.2135   24.2514  -72.3109 H         1 UNK         0.0793 
    116 H116      -77.7282   25.1089  -72.5111 H         1 UNK         0.0793 
    117 H117      -79.1307   24.2761  -74.4895 H         1 UNK         0.3047 
    118 H118      -79.8088   23.4446  -77.8760 H         1 UNK         0.0822 
    119 H119      -81.6412   22.0660  -76.9094 H         1 UNK         0.0807 
    120 H120      -80.8024   21.9942  -75.3585 H         1 UNK         0.0807 
    121 H121      -80.1073   21.2235  -76.7765 H         1 UNK         0.0807 
    122 H122      -81.4893   24.3645  -75.7588 H         1 UNK         0.2946 
    123 H123      -80.6783   27.8119  -75.9341 H         1 UNK         0.1144 
    124 H124      -83.1024   28.0415  -76.3922 H         1 UNK         0.0793 
    125 H125      -83.2060   26.3469  -76.8723 H         1 UNK         0.0793 
    126 H126      -82.2729   27.4845  -77.8348 H         1 UNK         0.0793 
    127 H127      -82.6663   26.5331  -74.4140 H         1 UNK         0.2896 
@<TRIPOS>BOND
     1    1    2 1    
     2    1   67 1    
     3    1   68 1    
     4    1   69 1    
     5    2    3 2    
     6    2    4 am   BACKBONE|DICT|INTERRES
     7    4    5 1    
     8    4   70 1    
     9    5    6 1    
    10    5   65 1    
    11    5   71 1    
    12    6    7 1    
    13    6   72 1    
    14    6   73 1    
    15    7    8 1    
    16    8    9 1    
    17    8   74 1    
    18    8   75 1    
    19    9   10 ar   
    20    9   14 ar   
    21   10   11 ar   
    22   10   76 1    
    23   11   12 ar   
    24   11   48 1    
    25   12   13 ar   
    26   12   77 1    
    27   13   14 ar   
    28   13   15 1    
    29   14   78 1    
    30   15   16 1    
    31   15   79 1    
    32   15   80 1    
    33   16   17 1    
    34   17   18 1    
    35   17   81 1    
    36   17   82 1    
    37   18   19 1    
    38   18   22 1    
    39   18   83 1    
    40   19   20 am   BACKBONE|DICT|INTERRES
    41   19   21 2    
    42   20   84 1    
    43   20   85 1    
    44   22   23 am   BACKBONE|DICT|INTERRES
    45   22   86 1    
    46   23   24 2    
    47   23   25 1    
    48   25   26 1    
    49   25   27 1    
    50   25   87 1    
    51   26   88 1    
    52   26   89 1    
    53   26   90 1    
    54   27   28 am   BACKBONE|DICT|INTERRES
    55   27   91 1    
    56   28   29 2    
    57   28   30 1    
    58   30   31 1    
    59   30   32 1    
    60   30   92 1    
    61   31   93 1    
    62   31   94 1    
    63   31   95 1    
    64   32   33 am   BACKBONE|DICT|INTERRES
    65   32   96 1    
    66   33   34 2    
    67   33   35 1    
    68   35   36 1    
    69   35   37 1    
    70   35   97 1    
    71   36   98 1    
    72   36   99 1    
    73   36  100 1    
    74   37   38 am   BACKBONE|DICT|INTERRES
    75   37  101 1    
    76   38   39 2    
    77   38   40 1    
    78   40   41 1    
    79   40   42 1    
    80   40  102 1    
    81   41  103 1    
    82   41  104 1    
    83   41  105 1    
    84   42   43 am   BACKBONE|DICT|INTERRES
    85   42  106 1    
    86   43   44 2    
    87   43   45 1    
    88   45   46 1    
    89   45   49 1    
    90   45  107 1    
    91   46   47 1    
    92   46  108 1    
    93   46  109 1    
    94   47   48 1    
    95   48  110 1    
    96   48  111 1    
    97   49   50 am   BACKBONE|DICT|INTERRES
    98   49  112 1    
    99   50   51 2    
   100   50   52 1    
   101   52   53 1    
   102   52   54 1    
   103   52  113 1    
   104   53  114 1    
   105   53  115 1    
   106   53  116 1    
   107   54   55 am   BACKBONE|DICT|INTERRES
   108   54  117 1    
   109   55   56 2    
   110   55   57 1    
   111   57   58 1    
   112   57   59 1    
   113   57  118 1    
   114   58  119 1    
   115   58  120 1    
   116   58  121 1    
   117   59   60 am   BACKBONE|DICT|INTERRES
   118   59  122 1    
   119   60   61 2    
   120   60   62 1    
   121   62   63 1    
   122   62   64 1    
   123   62  123 1    
   124   63  124 1    
   125   63  125 1    
   126   63  126 1    
   127   64   65 am   BACKBONE|DICT|INTERRES
   128   64  127 1    
   129   65   66 2    
@<TRIPOS>SUBSTRUCTURE
     1 UNK         1 GROUP             0       ****    0 ROOT    
