@<TRIPOS>MOLECULE
3R135
127   129    1
SMALL
USER_CHARGES


@<TRIPOS>ATOM
      1 CA        -79.6199   22.3181  -69.6978 C.3       0 UNK        -0.1998 
      2 C         -80.2943   23.5143  -70.3528 C.2       0 UNK         0.4909 
      3 O         -81.5071   23.6837  -70.2179 O.2       0 UNK        -0.5240 
      4 N         -79.5152   24.3493  -71.0511 N.am      1 UNK        -0.4739 
      5 CA        -79.9950   25.5194  -71.7966 C.3       1 UNK         0.0864 
      6 C6        -78.8398   26.4811  -72.1760 C.3       11 UNK        -0.0881 
      7 S7        -77.8487   27.0175  -70.7410 S.3       11 UNK        -0.2682 
      8 C8        -76.4009   27.7472  -71.5696 C.3       11 UNK         0.0289 
      9 C9        -76.7188   29.1184  -72.1467 C.ar      11 UNK        -0.0687 
     10 C10       -77.2409   29.2354  -73.4375 C.ar      11 UNK        -0.0823 
     11 C11       -77.5347   30.4905  -73.9793 C.ar      11 UNK        -0.0830 
     12 C12       -77.2835   31.6361  -73.2167 C.ar      11 UNK        -0.1021 
     13 C13       -76.7721   31.5337  -71.9193 C.ar      11 UNK        -0.0753 
     14 C14       -76.4955   30.2705  -71.3879 C.ar      11 UNK        -0.0933 
     15 C15       -76.5672   32.7888  -71.0823 C.3       11 UNK         0.0166 
     16 S16       -74.9252   33.5327  -71.3405 S.3       11 UNK        -0.2615 
     17 C17       -73.8592   32.4484  -70.3279 C.3       11 UNK        -0.0865 
     18 CA        -72.7728   31.7122  -71.1529 C.3       10 UNK         0.0862 
     19 C         -71.8966   30.8347  -70.2163 C.2       10 UNK         0.5551 
     20 N         -70.7812   31.3642  -69.7333 N.am      10 UNK        -0.7319 
     21 O         -72.2466   29.7024  -69.8884 O.2       10 UNK        -0.5018 
     22 N         -73.3548   30.9551  -72.2715 N.am      10 UNK        -0.4509 
     23 C         -72.6532   30.3219  -73.2167 C.2       10 UNK         0.4899 
     24 O         -71.4217   30.3360  -73.2951 O.2       10 UNK        -0.4839 
     25 CA        -73.4702   29.5874  -74.2840 C.3       9 UNK         0.0222 
     26 CB        -73.8282   30.5432  -75.4331 C.3       9 UNK        -0.1966 
     27 N         -72.6730   28.4837  -74.8140 N.am      9 UNK        -0.4218 
     28 C         -73.0245   27.1956  -74.7820 C.2       9 UNK         0.5020 
     29 O         -74.0898   26.7787  -74.3265 O.2       9 UNK        -0.5274 
     30 CA        -71.9914   26.1969  -75.3100 C.3       8 UNK         0.0270 
     31 CB        -71.2267   25.5373  -74.1467 C.3       8 UNK        -0.1976 
     32 N         -72.6678   25.1839  -76.1173 N.am      8 UNK        -0.4313 
     33 C         -72.0697   24.4300  -77.0492 C.2       8 UNK         0.5041 
     34 O         -70.8653   24.4838  -77.3039 O.2       8 UNK        -0.5577 
     35 CA        -72.9576   23.4697  -77.8529 C.3       7 UNK         0.0284 
     36 CB        -73.3698   22.2511  -77.0089 C.3       7 UNK        -0.1958 
     37 N         -74.1447   24.1592  -78.3573 N.am      7 UNK        -0.4454 
     38 C         -74.2028   24.8083  -79.5294 C.2       7 UNK         0.5089 
     39 O         -73.2791   24.8312  -80.3437 O.2       7 UNK        -0.5125 
     40 CA        -75.5075   25.5560  -79.8681 C.3       6 UNK         0.0408 
     41 CB        -76.3858   24.7044  -80.7979 C.3       6 UNK        -0.1791 
     42 N         -76.2854   25.9371  -78.6875 N.am      6 UNK        -0.4762 
     43 C         -75.9234   26.8923  -77.8150 C.2       6 UNK         0.5007 
     44 O         -74.9203   27.5920  -77.9570 O.2       6 UNK        -0.5032 
     45 CA        -76.8011   27.0590  -76.5512 C.3       5 UNK         0.0783 
     46 C46       -77.8781   28.1553  -76.7520 C.3       11 UNK        -0.0857 
     47 S47       -77.2095   29.8541  -76.6934 S.3       11 UNK        -0.2512 
     48 C48       -78.1809   30.6220  -75.3553 C.3       11 UNK         0.0225 
     49 N         -77.4166   25.7971  -76.1131 N.am      5 UNK        -0.4615 
     50 C         -76.7538   24.6639  -75.8268 C.2       4 UNK         0.5053 
     51 O         -75.5272   24.5782  -75.8253 O.2       4 UNK        -0.5105 
     52 CA        -77.5741   23.3842  -75.5814 C.3       4 UNK         0.0263 
     53 CB        -77.5312   22.9824  -74.0995 C.3       4 UNK        -0.1981 
     54 N         -78.9632   23.4697  -76.0468 N.am      4 UNK        -0.4224 
     55 C         -79.3167   23.5756  -77.3394 C.2       3 UNK         0.4895 
     56 O         -78.5020   23.5887  -78.2631 O.2       3 UNK        -0.5091 
     57 CA        -80.8122   23.7386  -77.6716 C.3       3 UNK         0.0250 
     58 CB        -81.4149   22.3900  -78.0962 C.3       3 UNK        -0.1996 
     59 N         -81.6196   24.3072  -76.5883 N.am      3 UNK        -0.4254 
     60 C         -81.4380   25.5136  -76.0329 C.2       2 UNK         0.5004 
     61 O         -80.5536   26.2975  -76.3803 O.2       2 UNK        -0.5226 
     62 CA        -82.3490   25.8936  -74.8478 C.3       2 UNK         0.0269 
     63 CB        -83.5504   24.9425  -74.6384 C.3       2 UNK        -0.1926 
     64 N         -81.5793   26.0236  -73.6025 N.am      2 UNK        -0.4687 
     65 C         -80.7699   25.0976  -73.0643 C.2       1 UNK         0.5165 
     66 O         -80.5888   23.9794  -73.5574 O.2       1 UNK        -0.5079 
     67 H67       -80.0467   21.3917  -70.0810 H         1 UNK         0.0900 
     68 H68       -79.7730   22.3445  -68.6193 H         1 UNK         0.0900 
     69 H69       -78.5468   22.3007  -69.8878 H         1 UNK         0.0900 
     70 H70       -78.5252   24.1661  -71.1199 H         1 UNK         0.2959 
     71 H71       -80.6911   26.0585  -71.1497 H         1 UNK         0.1079 
     72 H72       -78.1737   26.0184  -72.9062 H         1 UNK         0.0837 
     73 H73       -79.2414   27.3769  -72.6526 H         1 UNK         0.0837 
     74 H74       -75.5870   27.8298  -70.8476 H         1 UNK         0.0685 
     75 H75       -76.0410   27.0776  -72.3527 H         1 UNK         0.0685 
     76 H76       -77.4303   28.3416  -74.0107 H         1 UNK         0.1434 
     77 H77       -77.5126   32.6132  -73.6203 H         1 UNK         0.1329 
     78 H78       -76.1160   30.1783  -70.3796 H         1 UNK         0.1335 
     79 H79       -77.3256   33.5282  -71.3445 H         1 UNK         0.0680 
     80 H80       -76.7162   32.5738  -70.0229 H         1 UNK         0.0680 
     81 H81       -73.3871   33.0758  -69.5693 H         1 UNK         0.1032 
     82 H82       -74.4701   31.7341  -69.7747 H         1 UNK         0.1032 
     83 H83       -72.1272   32.4710  -71.6002 H         1 UNK         0.0461 
     84 H84       -70.4920   32.2955  -69.9897 H         1 UNK         0.3453 
     85 H85       -70.2086   30.8165  -69.1099 H         1 UNK         0.3453 
     86 H86       -74.3643   30.9128  -72.2949 H         1 UNK         0.2984 
     87 H87       -74.3903   29.2160  -73.8308 H         1 UNK         0.0554 
     88 H88       -72.9470   31.0434  -75.8367 H         1 UNK         0.0847 
     89 H89       -74.5210   31.3157  -75.0961 H         1 UNK         0.0847 
     90 H90       -74.3092   30.0099  -76.2526 H         1 UNK         0.0847 
     91 H91       -71.7405   28.7335  -75.1150 H         1 UNK         0.3141 
     92 H92       -71.2830   26.7337  -75.9451 H         1 UNK         0.0743 
     93 H93       -71.8946   24.9593  -73.5066 H         1 UNK         0.0784 
     94 H94       -70.4469   24.8673  -74.5090 H         1 UNK         0.0784 
     95 H95       -70.7424   26.2884  -73.5213 H         1 UNK         0.0784 
     96 H96       -73.6700   25.0918  -75.9499 H         1 UNK         0.3213 
     97 H97       -72.3711   23.0987  -78.6967 H         1 UNK         0.0855 
     98 H98       -73.9316   22.5340  -76.1187 H         1 UNK         0.0814 
     99 H99       -72.4906   21.6999  -76.6729 H         1 UNK         0.0814 
    100 H100      -73.9839   21.5598  -77.5860 H         1 UNK         0.0814 
    101 H101      -74.9184   24.2521  -77.7090 H         1 UNK         0.3105 
    102 H102      -75.2347   26.4685  -80.4024 H         1 UNK         0.0547 
    103 H103      -75.8508   24.4491  -81.7137 H         1 UNK         0.0837 
    104 H104      -76.6852   23.7682  -80.3250 H         1 UNK         0.0837 
    105 H105      -77.2907   25.2371  -81.0901 H         1 UNK         0.0837 
    106 H106      -77.1097   25.3812  -78.4903 H         1 UNK         0.3020 
    107 H107      -76.1327   27.3728  -75.7482 H         1 UNK         0.1245 
    108 H108      -78.6423   28.0649  -75.9799 H         1 UNK         0.0781 
    109 H109      -78.4092   28.0162  -77.6959 H         1 UNK         0.0781 
    110 H110      -79.1880   30.2043  -75.3274 H         1 UNK         0.0836 
    111 H111      -78.3071   31.6757  -75.6087 H         1 UNK         0.0836 
    112 H112      -78.4299   25.7737  -76.1247 H         1 UNK         0.3022 
    113 H113      -77.0911   22.5877  -76.1517 H         1 UNK         0.0747 
    114 H114      -78.0913   22.0649  -73.9178 H         1 UNK         0.0793 
    115 H115      -76.5046   22.8062  -73.7752 H         1 UNK         0.0793 
    116 H116      -77.9420   23.7588  -73.4580 H         1 UNK         0.0793 
    117 H117      -79.6828   23.5021  -75.3303 H         1 UNK         0.3047 
    118 H118      -80.8769   24.4242  -78.5191 H         1 UNK         0.0822 
    119 H119      -82.4451   22.5032  -78.4345 H         1 UNK         0.0807 
    120 H120      -81.4057   21.6683  -77.2782 H         1 UNK         0.0807 
    121 H121      -80.8517   21.9533  -78.9223 H         1 UNK         0.0807 
    122 H122      -82.3457   23.7170  -76.2088 H         1 UNK         0.2946 
    123 H123      -82.7459   26.8829  -75.0821 H         1 UNK         0.1144 
    124 H124      -84.2035   25.3125  -73.8479 H         1 UNK         0.0793 
    125 H125      -83.2407   23.9351  -74.3577 H         1 UNK         0.0793 
    126 H126      -84.1588   24.8678  -75.5408 H         1 UNK         0.0793 
    127 H127      -81.6396   26.9268  -73.1528 H         1 UNK         0.2896 
@<TRIPOS>BOND
     1    1    2 1    
     2    1   67 1    
     3    1   68 1    
     4    1   69 1    
     5    2    3 2    
     6    2    4 am   BACKBONE|DICT|INTERRES
     7    4    5 1    
     8    4   70 1    
     9    5    6 1    
    10    5   65 1    
    11    5   71 1    
    12    6    7 1    
    13    6   72 1    
    14    6   73 1    
    15    7    8 1    
    16    8    9 1    
    17    8   74 1    
    18    8   75 1    
    19    9   10 ar   
    20    9   14 ar   
    21   10   11 ar   
    22   10   76 1    
    23   11   12 ar   
    24   11   48 1    
    25   12   13 ar   
    26   12   77 1    
    27   13   14 ar   
    28   13   15 1    
    29   14   78 1    
    30   15   16 1    
    31   15   79 1    
    32   15   80 1    
    33   16   17 1    
    34   17   18 1    
    35   17   81 1    
    36   17   82 1    
    37   18   19 1    
    38   18   22 1    
    39   18   83 1    
    40   19   20 am   BACKBONE|DICT|INTERRES
    41   19   21 2    
    42   20   84 1    
    43   20   85 1    
    44   22   23 am   BACKBONE|DICT|INTERRES
    45   22   86 1    
    46   23   24 2    
    47   23   25 1    
    48   25   26 1    
    49   25   27 1    
    50   25   87 1    
    51   26   88 1    
    52   26   89 1    
    53   26   90 1    
    54   27   28 am   BACKBONE|DICT|INTERRES
    55   27   91 1    
    56   28   29 2    
    57   28   30 1    
    58   30   31 1    
    59   30   32 1    
    60   30   92 1    
    61   31   93 1    
    62   31   94 1    
    63   31   95 1    
    64   32   33 am   BACKBONE|DICT|INTERRES
    65   32   96 1    
    66   33   34 2    
    67   33   35 1    
    68   35   36 1    
    69   35   37 1    
    70   35   97 1    
    71   36   98 1    
    72   36   99 1    
    73   36  100 1    
    74   37   38 am   BACKBONE|DICT|INTERRES
    75   37  101 1    
    76   38   39 2    
    77   38   40 1    
    78   40   41 1    
    79   40   42 1    
    80   40  102 1    
    81   41  103 1    
    82   41  104 1    
    83   41  105 1    
    84   42   43 am   BACKBONE|DICT|INTERRES
    85   42  106 1    
    86   43   44 2    
    87   43   45 1    
    88   45   46 1    
    89   45   49 1    
    90   45  107 1    
    91   46   47 1    
    92   46  108 1    
    93   46  109 1    
    94   47   48 1    
    95   48  110 1    
    96   48  111 1    
    97   49   50 am   BACKBONE|DICT|INTERRES
    98   49  112 1    
    99   50   51 2    
   100   50   52 1    
   101   52   53 1    
   102   52   54 1    
   103   52  113 1    
   104   53  114 1    
   105   53  115 1    
   106   53  116 1    
   107   54   55 am   BACKBONE|DICT|INTERRES
   108   54  117 1    
   109   55   56 2    
   110   55   57 1    
   111   57   58 1    
   112   57   59 1    
   113   57  118 1    
   114   58  119 1    
   115   58  120 1    
   116   58  121 1    
   117   59   60 am   BACKBONE|DICT|INTERRES
   118   59  122 1    
   119   60   61 2    
   120   60   62 1    
   121   62   63 1    
   122   62   64 1    
   123   62  123 1    
   124   63  124 1    
   125   63  125 1    
   126   63  126 1    
   127   64   65 am   BACKBONE|DICT|INTERRES
   128   64  127 1    
   129   65   66 2    
@<TRIPOS>SUBSTRUCTURE
     1 UNK         1 GROUP             0       ****    0 ROOT    
