@<TRIPOS>MOLECULE
3R135
127   129    1
SMALL
USER_CHARGES


@<TRIPOS>ATOM
      1 CA        -83.2288   29.0105  -75.9768 C.3       0 UNK        -0.1998 
      2 C         -82.1854   28.0214  -75.4814 C.2       0 UNK         0.4909 
      3 O         -82.4237   26.8135  -75.5170 O.2       0 UNK        -0.5240 
      4 N         -81.0176   28.5225  -75.0468 N.am      1 UNK        -0.4739 
      5 CA        -79.9035   27.7622  -74.4437 C.3       1 UNK         0.0864 
      6 C6        -80.2868   27.1366  -73.0744 C.3       11 UNK        -0.0881 
      7 S7        -80.8491   28.4021  -71.8816 S.3       11 UNK        -0.2682 
      8 C8        -79.8731   28.0104  -70.3928 C.3       11 UNK         0.0289 
      9 C9        -78.3697   28.0015  -70.6421 C.ar      11 UNK        -0.0687 
     10 C10       -77.6190   26.8695  -70.3149 C.ar      11 UNK        -0.0823 
     11 C11       -76.2386   26.8421  -70.5318 C.ar      11 UNK        -0.0830 
     12 C12       -75.6060   27.9649  -71.0757 C.ar      11 UNK        -0.1021 
     13 C13       -76.3446   29.1076  -71.3999 C.ar      11 UNK        -0.0753 
     14 C14       -77.7257   29.1197  -71.1810 C.ar      11 UNK        -0.0933 
     15 C15       -75.6446   30.3500  -71.9288 C.3       11 UNK         0.0166 
     16 S16       -74.9595   30.1166  -73.6016 S.3       11 UNK        -0.2615 
     17 C17       -74.2760   31.7889  -73.8985 C.3       11 UNK        -0.0865 
     18 CA        -72.7436   31.9272  -73.6888 C.3       10 UNK         0.0862 
     19 C         -72.2999   31.5755  -72.2359 C.2       10 UNK         0.5551 
     20 N         -71.5856   30.4782  -72.0067 N.am      10 UNK        -0.7319 
     21 O         -72.6039   32.3197  -71.3070 O.2       10 UNK        -0.5018 
     22 N         -71.9748   31.2502  -74.7437 N.am      10 UNK        -0.4509 
     23 C         -70.6740   31.4775  -74.9779 C.2       10 UNK         0.4899 
     24 O         -70.0458   32.3992  -74.4536 O.2       10 UNK        -0.4839 
     25 CA        -69.9372   30.5320  -75.9497 C.3       9 UNK         0.0222 
     26 CB        -68.4917   30.2490  -75.4882 C.3       9 UNK        -0.1966 
     27 N         -70.6304   29.2691  -76.2348 N.am      9 UNK        -0.4218 
     28 C         -71.0116   28.3165  -75.3713 C.2       9 UNK         0.5020 
     29 O         -70.8875   28.3969  -74.1465 O.2       9 UNK        -0.5274 
     30 CA        -71.6603   27.0705  -76.0013 C.3       8 UNK         0.0270 
     31 CB        -71.2413   25.7875  -75.2623 C.3       8 UNK        -0.1976 
     32 N         -73.1240   27.1332  -76.0591 N.am      8 UNK        -0.4313 
     33 C         -73.8644   28.0800  -76.6602 C.2       8 UNK         0.5041 
     34 O         -73.3913   29.0824  -77.1987 O.2       8 UNK        -0.5577 
     35 CA        -75.3913   27.8484  -76.6926 C.3       7 UNK         0.0284 
     36 CB        -76.1150   28.7177  -77.7418 C.3       7 UNK        -0.1958 
     37 N         -75.7516   26.4367  -76.8582 N.am      7 UNK        -0.4454 
     38 C         -75.3798   25.5957  -77.8389 C.2       7 UNK         0.5089 
     39 O         -74.7513   25.9386  -78.8406 O.2       7 UNK        -0.5125 
     40 CA        -75.7759   24.1117  -77.6567 C.3       6 UNK         0.0408 
     41 CB        -74.6984   23.1542  -78.2080 C.3       6 UNK        -0.1791 
     42 N         -76.1275   23.7563  -76.2700 N.am      6 UNK        -0.4762 
     43 C         -75.3289   23.8551  -75.1934 C.2       6 UNK         0.5007 
     44 O         -74.1656   24.2543  -75.2586 O.2       6 UNK        -0.5032 
     45 CA        -75.9294   23.5275  -73.8142 C.3       5 UNK         0.0783 
     46 C46       -75.4733   24.5706  -72.7595 C.3       11 UNK        -0.0857 
     47 S47       -75.9713   24.1238  -71.0656 S.3       11 UNK        -0.2512 
     48 C48       -75.4328   25.6060  -70.1541 C.3       11 UNK         0.0225 
     49 N         -77.3948   23.4283  -73.8723 N.am      5 UNK        -0.4615 
     50 C         -78.0915   22.3456  -73.5062 C.2       4 UNK         0.5053 
     51 O         -77.5823   21.2526  -73.2566 O.2       4 UNK        -0.5105 
     52 CA        -79.6090   22.5100  -73.3610 C.3       4 UNK         0.0263 
     53 CB        -79.9385   23.3757  -72.1323 C.3       4 UNK        -0.1981 
     54 N         -80.2203   23.0985  -74.5555 N.am      4 UNK        -0.4224 
     55 C         -81.0478   22.4370  -75.3795 C.2       3 UNK         0.4895 
     56 O         -81.3207   21.2416  -75.2601 O.2       3 UNK        -0.5091 
     57 CA        -81.7210   23.2280  -76.5169 C.3       3 UNK         0.0250 
     58 CB        -83.1786   23.5509  -76.1492 C.3       3 UNK        -0.1996 
     59 N         -81.0302   24.4713  -76.8608 N.am      3 UNK        -0.4254 
     60 C         -79.8887   24.5252  -77.5622 C.2       2 UNK         0.5004 
     61 O         -79.3176   23.5330  -78.0131 O.2       2 UNK        -0.5226 
     62 CA        -79.2532   25.9110  -77.7738 C.3       2 UNK         0.0269 
     63 CB        -79.6813   26.5022  -79.1255 C.3       2 UNK        -0.1926 
     64 N         -79.5494   26.8726  -76.7110 N.am      2 UNK        -0.4687 
     65 C         -79.2887   26.7148  -75.4046 C.2       1 UNK         0.5165 
     66 O         -78.6334   25.7674  -74.9595 O.2       1 UNK        -0.5079 
     67 H67       -82.8811   30.0408  -75.9058 H         1 UNK         0.0900 
     68 H68       -84.1396   28.9184  -75.3859 H         1 UNK         0.0900 
     69 H69       -83.4757   28.8052  -77.0180 H         1 UNK         0.0900 
     70 H70       -80.8865   29.5248  -75.0597 H         1 UNK         0.2959 
     71 H71       -79.1030   28.4815  -74.2620 H         1 UNK         0.1079 
     72 H72       -81.0755   26.3913  -73.1901 H         1 UNK         0.0837 
     73 H73       -79.4322   26.6085  -72.6525 H         1 UNK         0.0837 
     74 H74       -80.0982   28.7474  -69.6209 H         1 UNK         0.0685 
     75 H75       -80.2085   27.0471  -70.0053 H         1 UNK         0.0685 
     76 H76       -78.1067   26.0016  -69.8917 H         1 UNK         0.1434 
     77 H77       -74.5365   27.9596  -71.2385 H         1 UNK         0.1329 
     78 H78       -78.3035   30.0016  -71.4218 H         1 UNK         0.1335 
     79 H79       -76.3334   31.1962  -71.9424 H         1 UNK         0.0680 
     80 H80       -74.8445   30.6174  -71.2385 H         1 UNK         0.0680 
     81 H81       -74.7979   32.5104  -73.2674 H         1 UNK         0.1032 
     82 H82       -74.5290   32.0759  -74.9203 H         1 UNK         0.1032 
     83 H83       -72.5264   32.9916  -73.8008 H         1 UNK         0.0461 
     84 H84       -71.2978   30.2623  -71.0662 H         1 UNK         0.3453 
     85 H85       -71.3507   29.8475  -72.7660 H         1 UNK         0.3453 
     86 H86       -72.4265   30.4740  -75.2076 H         1 UNK         0.2984 
     87 H87       -69.8831   31.0650  -76.8999 H         1 UNK         0.0554 
     88 H88       -67.9682   29.6032  -76.1930 H         1 UNK         0.0847 
     89 H89       -68.4686   29.7665  -74.5103 H         1 UNK         0.0847 
     90 H90       -67.9137   31.1707  -75.4091 H         1 UNK         0.0847 
     91 H91       -70.8908   29.1349  -77.2035 H         1 UNK         0.3141 
     92 H92       -71.2999   26.9861  -77.0285 H         1 UNK         0.0743 
     93 H93       -71.6615   25.7451  -74.2564 H         1 UNK         0.0784 
     94 H94       -71.5677   24.8965  -75.7990 H         1 UNK         0.0784 
     95 H95       -70.1563   25.7260  -75.1664 H         1 UNK         0.0784 
     96 H96       -73.6061   26.3296  -75.6731 H         1 UNK         0.3213 
     97 H97       -75.7623   28.1431  -75.7103 H         1 UNK         0.0855 
     98 H98       -75.9500   29.7786  -77.5499 H         1 UNK         0.0814 
     99 H99       -77.1916   28.5498  -77.7226 H         1 UNK         0.0814 
    100 H100      -75.7599   28.5102  -78.7516 H         1 UNK         0.0814 
    101 H101      -76.2760   26.0315  -76.0947 H         1 UNK         0.3105 
    102 H102      -76.6755   23.9598  -78.2526 H         1 UNK         0.0547 
    103 H103      -74.5461   23.3097  -79.2767 H         1 UNK         0.0837 
    104 H104      -73.7343   23.3021  -77.7204 H         1 UNK         0.0837 
    105 H105      -74.9868   22.1120  -78.0734 H         1 UNK         0.0837 
    106 H106      -77.0728   23.4274  -76.1239 H         1 UNK         0.3020 
    107 H107      -75.4945   22.5644  -73.5379 H         1 UNK         0.1245 
    108 H108      -75.8796   25.5545  -73.0024 H         1 UNK         0.0781 
    109 H109      -74.3867   24.6780  -72.7527 H         1 UNK         0.0781 
    110 H110      -74.3669   25.7643  -70.3258 H         1 UNK         0.0836 
    111 H111      -75.5469   25.4228  -69.0849 H         1 UNK         0.0836 
    112 H112      -77.8852   24.2899  -74.0992 H         1 UNK         0.3022 
    113 H113      -80.0231   21.5171  -73.1728 H         1 UNK         0.0747 
    114 H114      -81.0149   23.4887  -72.0019 H         1 UNK         0.0793 
    115 H115      -79.5469   22.9203  -71.2216 H         1 UNK         0.0793 
    116 H116      -79.5020   24.3706  -72.2047 H         1 UNK         0.0793 
    117 H117      -80.0064   24.0672  -74.7539 H         1 UNK         0.3047 
    118 H118      -81.7299   22.5845  -77.3996 H         1 UNK         0.0822 
    119 H119      -83.6886   24.0679  -76.9622 H         1 UNK         0.0807 
    120 H120      -83.2396   24.1816  -75.2612 H         1 UNK         0.0807 
    121 H121      -83.7412   22.6397  -75.9413 H         1 UNK         0.0807 
    122 H122      -81.4400   25.3325  -76.5091 H         1 UNK         0.2946 
    123 H123      -78.1775   25.7678  -77.7960 H         1 UNK         0.1144 
    124 H124      -79.4518   25.8160  -79.9421 H         1 UNK         0.0793 
    125 H125      -79.1583   27.4357  -79.3340 H         1 UNK         0.0793 
    126 H126      -80.7533   26.7011  -79.1578 H         1 UNK         0.0793 
    127 H127      -80.1035   27.6751  -76.9736 H         1 UNK         0.2896 
@<TRIPOS>BOND
     1    1    2 1    
     2    1   67 1    
     3    1   68 1    
     4    1   69 1    
     5    2    3 2    
     6    2    4 am   BACKBONE|DICT|INTERRES
     7    4    5 1    
     8    4   70 1    
     9    5    6 1    
    10    5   65 1    
    11    5   71 1    
    12    6    7 1    
    13    6   72 1    
    14    6   73 1    
    15    7    8 1    
    16    8    9 1    
    17    8   74 1    
    18    8   75 1    
    19    9   10 ar   
    20    9   14 ar   
    21   10   11 ar   
    22   10   76 1    
    23   11   12 ar   
    24   11   48 1    
    25   12   13 ar   
    26   12   77 1    
    27   13   14 ar   
    28   13   15 1    
    29   14   78 1    
    30   15   16 1    
    31   15   79 1    
    32   15   80 1    
    33   16   17 1    
    34   17   18 1    
    35   17   81 1    
    36   17   82 1    
    37   18   19 1    
    38   18   22 1    
    39   18   83 1    
    40   19   20 am   BACKBONE|DICT|INTERRES
    41   19   21 2    
    42   20   84 1    
    43   20   85 1    
    44   22   23 am   BACKBONE|DICT|INTERRES
    45   22   86 1    
    46   23   24 2    
    47   23   25 1    
    48   25   26 1    
    49   25   27 1    
    50   25   87 1    
    51   26   88 1    
    52   26   89 1    
    53   26   90 1    
    54   27   28 am   BACKBONE|DICT|INTERRES
    55   27   91 1    
    56   28   29 2    
    57   28   30 1    
    58   30   31 1    
    59   30   32 1    
    60   30   92 1    
    61   31   93 1    
    62   31   94 1    
    63   31   95 1    
    64   32   33 am   BACKBONE|DICT|INTERRES
    65   32   96 1    
    66   33   34 2    
    67   33   35 1    
    68   35   36 1    
    69   35   37 1    
    70   35   97 1    
    71   36   98 1    
    72   36   99 1    
    73   36  100 1    
    74   37   38 am   BACKBONE|DICT|INTERRES
    75   37  101 1    
    76   38   39 2    
    77   38   40 1    
    78   40   41 1    
    79   40   42 1    
    80   40  102 1    
    81   41  103 1    
    82   41  104 1    
    83   41  105 1    
    84   42   43 am   BACKBONE|DICT|INTERRES
    85   42  106 1    
    86   43   44 2    
    87   43   45 1    
    88   45   46 1    
    89   45   49 1    
    90   45  107 1    
    91   46   47 1    
    92   46  108 1    
    93   46  109 1    
    94   47   48 1    
    95   48  110 1    
    96   48  111 1    
    97   49   50 am   BACKBONE|DICT|INTERRES
    98   49  112 1    
    99   50   51 2    
   100   50   52 1    
   101   52   53 1    
   102   52   54 1    
   103   52  113 1    
   104   53  114 1    
   105   53  115 1    
   106   53  116 1    
   107   54   55 am   BACKBONE|DICT|INTERRES
   108   54  117 1    
   109   55   56 2    
   110   55   57 1    
   111   57   58 1    
   112   57   59 1    
   113   57  118 1    
   114   58  119 1    
   115   58  120 1    
   116   58  121 1    
   117   59   60 am   BACKBONE|DICT|INTERRES
   118   59  122 1    
   119   60   61 2    
   120   60   62 1    
   121   62   63 1    
   122   62   64 1    
   123   62  123 1    
   124   63  124 1    
   125   63  125 1    
   126   63  126 1    
   127   64   65 am   BACKBONE|DICT|INTERRES
   128   64  127 1    
   129   65   66 2    
@<TRIPOS>SUBSTRUCTURE
     1 UNK         1 GROUP             0       ****    0 ROOT    
