@<TRIPOS>MOLECULE
3R135
127   129    1
SMALL
USER_CHARGES


@<TRIPOS>ATOM
      1 CA        -81.4429   28.3544  -69.8010 C.3       0 UNK        -0.1998 
      2 C         -82.3265   27.8851  -70.9472 C.2       0 UNK         0.4909 
      3 O         -83.3413   27.2305  -70.7076 O.2       0 UNK        -0.5240 
      4 N         -81.9588   28.2274  -72.1891 N.am      1 UNK        -0.4739 
      5 CA        -82.7380   27.9346  -73.3982 C.3       1 UNK         0.0864 
      6 C6        -82.4225   28.9475  -74.5364 C.3       11 UNK        -0.0881 
      7 S7        -80.9624   28.5780  -75.5767 S.3       11 UNK        -0.2682 
      8 C8        -79.7639   29.8869  -75.1419 C.3       11 UNK         0.0289 
      9 C9        -78.9085   29.6491  -73.8941 C.ar      11 UNK        -0.0687 
     10 C10       -78.9289   28.4570  -73.1560 C.ar      11 UNK        -0.0823 
     11 C11       -78.1493   28.3148  -72.0024 C.ar      11 UNK        -0.0830 
     12 C12       -77.3045   29.3547  -71.6119 C.ar      11 UNK        -0.1021 
     13 C13       -77.2328   30.5280  -72.3646 C.ar      11 UNK        -0.0753 
     14 C14       -78.0468   30.6741  -73.4907 C.ar      11 UNK        -0.0933 
     15 C15       -76.2715   31.6361  -71.9650 C.3       11 UNK         0.0166 
     16 S16       -74.7023   31.5133  -72.8790 S.3       11 UNK        -0.2615 
     17 C17       -73.9831   29.9985  -72.1544 C.3       11 UNK        -0.0865 
     18 CA        -72.5360   29.7395  -72.6487 C.3       10 UNK         0.0862 
     19 C         -71.8242   28.6135  -71.8413 C.2       10 UNK         0.5551 
     20 N         -71.0247   27.7509  -72.4589 N.am      10 UNK        -0.7319 
     21 O         -71.9826   28.5269  -70.6260 O.2       10 UNK        -0.5018 
     22 N         -72.5126   29.4927  -74.0973 N.am      10 UNK        -0.4509 
     23 C         -71.6954   30.0835  -74.9743 C.2       10 UNK         0.4899 
     24 O         -70.8933   30.9720  -74.6805 O.2       10 UNK        -0.4839 
     25 CA        -71.7839   29.5681  -76.4240 C.3       9 UNK         0.0222 
     26 CB        -70.6519   30.1043  -77.3258 C.3       9 UNK        -0.1966 
     27 N         -71.8591   28.1034  -76.5076 N.am      9 UNK        -0.4218 
     28 C         -70.9736   27.2137  -76.0275 C.2       9 UNK         0.5020 
     29 O         -69.9594   27.5354  -75.4064 O.2       9 UNK        -0.5274 
     30 CA        -71.2576   25.7101  -76.2286 C.3       8 UNK         0.0270 
     31 CB        -71.3266   24.9888  -74.8719 C.3       8 UNK        -0.1976 
     32 N         -72.4818   25.4259  -76.9810 N.am      8 UNK        -0.4313 
     33 C         -72.6262   25.5767  -78.3040 C.2       8 UNK         0.5041 
     34 O         -71.7103   25.8993  -79.0612 O.2       8 UNK        -0.5577 
     35 CA        -74.0435   25.3868  -78.8696 C.3       7 UNK         0.0284 
     36 CB        -74.2980   23.9093  -79.2074 C.3       7 UNK        -0.1958 
     37 N         -75.0937   25.8781  -77.9696 N.am      7 UNK        -0.4454 
     38 C         -75.2431   27.1567  -77.5894 C.2       7 UNK         0.5089 
     39 O         -74.5141   28.0720  -77.9712 O.2       7 UNK        -0.5125 
     40 CA        -76.3581   27.4566  -76.5734 C.3       6 UNK         0.0408 
     41 CB        -77.7387   27.3763  -77.2386 C.3       6 UNK        -0.1791 
     42 N         -76.3049   26.5545  -75.4218 N.am      6 UNK        -0.4762 
     43 C         -75.3004   26.5272  -74.5322 C.2       6 UNK         0.5007 
     44 O         -74.3599   27.3234  -74.5390 O.2       6 UNK        -0.5032 
     45 CA        -75.2943   25.3788  -73.5039 C.3       5 UNK         0.0783 
     46 C46       -75.8931   25.7880  -72.1331 C.3       11 UNK        -0.0857 
     47 S47       -77.7014   25.5684  -72.0322 S.3       11 UNK        -0.2512 
     48 C48       -78.2418   27.0567  -71.1512 C.3       11 UNK         0.0225 
     49 N         -75.8911   24.1495  -74.0363 N.am      5 UNK        -0.4615 
     50 C         -75.3559   23.3914  -74.9981 C.2       4 UNK         0.5053 
     51 O         -74.2772   23.6333  -75.5384 O.2       4 UNK        -0.5105 
     52 CA        -76.1869   22.1812  -75.4518 C.3       4 UNK         0.0263 
     53 CB        -76.1774   21.0758  -74.3832 C.3       4 UNK        -0.1981 
     54 N         -77.5707   22.5292  -75.7936 N.am      4 UNK        -0.4224 
     55 C         -77.9162   23.3322  -76.8102 C.2       3 UNK         0.4895 
     56 O         -77.1023   23.9090  -77.5297 O.2       3 UNK        -0.5091 
     57 CA        -79.4162   23.5216  -77.0919 C.3       3 UNK         0.0250 
     58 CB        -79.9099   22.4568  -78.0846 C.3       3 UNK        -0.1996 
     59 N         -80.2731   23.5132  -75.9021 N.am      3 UNK        -0.4254 
     60 C         -80.2485   24.4544  -74.9498 C.2       2 UNK         0.5004 
     61 O         -79.4109   25.3576  -74.9071 O.2       2 UNK        -0.5226 
     62 CA        -81.3363   24.3595  -73.8664 C.3       2 UNK         0.0269 
     63 CB        -80.8743   23.4828  -72.6917 C.3       2 UNK        -0.1926 
     64 N         -81.6683   25.6982  -73.3737 N.am      2 UNK        -0.4687 
     65 C         -82.6648   26.4562  -73.8553 C.2       1 UNK         0.5165 
     66 O         -83.5099   26.0371  -74.6489 O.2       1 UNK        -0.5079 
     67 H67       -81.0596   27.4995  -69.2448 H         1 UNK         0.0900 
     68 H68       -82.0209   28.9723  -69.1145 H         1 UNK         0.0900 
     69 H69       -80.5967   28.9451  -70.1519 H         1 UNK         0.0900 
     70 H70       -81.1164   28.7675  -72.3324 H         1 UNK         0.2959 
     71 H71       -83.7859   28.0956  -73.1328 H         1 UNK         0.1079 
     72 H72       -82.3427   29.9582  -74.1329 H         1 UNK         0.0837 
     73 H73       -83.2770   28.9841  -75.2145 H         1 UNK         0.0837 
     74 H74       -80.2945   30.8352  -75.0451 H         1 UNK         0.0685 
     75 H75       -79.0876   30.0041  -75.9899 H         1 UNK         0.0685 
     76 H76       -79.5467   27.6293  -73.4704 H         1 UNK         0.1434 
     77 H77       -76.6913   29.2488  -70.7273 H         1 UNK         0.1329 
     78 H78       -77.9969   31.5891  -74.0655 H         1 UNK         0.1335 
     79 H79       -76.7240   32.6076  -72.1695 H         1 UNK         0.0680 
     80 H80       -76.0755   31.6108  -70.8919 H         1 UNK         0.0680 
     81 H81       -74.0101   30.1041  -71.0683 H         1 UNK         0.1032 
     82 H82       -74.6189   29.1468  -72.4002 H         1 UNK         0.1032 
     83 H83       -71.9601   30.6395  -72.4269 H         1 UNK         0.0461 
     84 H84       -70.5637   27.0374  -71.9177 H         1 UNK         0.3453 
     85 H85       -70.8293   27.8406  -73.4475 H         1 UNK         0.3453 
     86 H86       -73.1282   28.7473  -74.4157 H         1 UNK         0.2984 
     87 H87       -72.7277   29.9437  -76.8215 H         1 UNK         0.0554 
     88 H88       -70.7588   29.7470  -78.3500 H         1 UNK         0.0847 
     89 H89       -69.6687   29.8001  -76.9652 H         1 UNK         0.0847 
     90 H90       -70.6626   31.1943  -77.3611 H         1 UNK         0.0847 
     91 H91       -72.6881   27.7493  -76.9722 H         1 UNK         0.3141 
     92 H92       -70.4143   25.2982  -76.7866 H         1 UNK         0.0743 
     93 H93       -70.3859   25.0838  -74.3280 H         1 UNK         0.0784 
     94 H94       -72.1099   25.4044  -74.2389 H         1 UNK         0.0784 
     95 H95       -71.5207   23.9231  -74.9948 H         1 UNK         0.0784 
     96 H96       -73.2703   25.0653  -76.4497 H         1 UNK         0.3213 
     97 H97       -74.1073   25.9640  -79.7944 H         1 UNK         0.0855 
     98 H98       -74.2884   23.2836  -78.3141 H         1 UNK         0.0814 
     99 H99       -73.5344   23.5252  -79.8851 H         1 UNK         0.0814 
    100 H100      -75.2628   23.7758  -79.6970 H         1 UNK         0.0814 
    101 H101      -75.7643   25.1865  -77.6374 H         1 UNK         0.3105 
    102 H102      -76.2209   28.4743  -76.2010 H         1 UNK         0.0547 
    103 H103      -78.5310   27.4928  -76.5029 H         1 UNK         0.0837 
    104 H104      -77.8598   28.1649  -77.9818 H         1 UNK         0.0837 
    105 H105      -77.9001   26.4249  -77.7438 H         1 UNK         0.0837 
    106 H106      -77.0614   25.8888  -75.3226 H         1 UNK         0.3020 
    107 H107      -74.2398   25.1603  -73.3251 H         1 UNK         0.1245 
    108 H108      -75.6185   26.8117  -71.8716 H         1 UNK         0.0781 
    109 H109      -75.4559   25.1634  -71.3529 H         1 UNK         0.0781 
    110 H110      -77.6674   27.1564  -70.2288 H         1 UNK         0.0836 
    111 H111      -79.2768   26.9066  -70.8496 H         1 UNK         0.0836 
    112 H112      -76.7994   23.9108  -73.6641 H         1 UNK         0.3022 
    113 H113      -75.7146   21.7827  -76.3525 H         1 UNK         0.0747 
    114 H114      -76.6693   20.1723  -74.7441 H         1 UNK         0.0793 
    115 H115      -75.1559   20.8008  -74.1163 H         1 UNK         0.0793 
    116 H116      -76.6807   21.3885  -73.4674 H         1 UNK         0.0793 
    117 H117      -78.3045   22.0996  -75.2498 H         1 UNK         0.3047 
    118 H118      -79.5296   24.4991  -77.5659 H         1 UNK         0.0822 
    119 H119      -79.3036   22.4586  -78.9919 H         1 UNK         0.0807 
    120 H120      -80.9405   22.6429  -78.3875 H         1 UNK         0.0807 
    121 H121      -79.8588   21.4530  -77.6611 H         1 UNK         0.0807 
    122 H122      -80.9784   22.7913  -75.8593 H         1 UNK         0.2946 
    123 H123      -82.2235   23.8977  -74.3060 H         1 UNK         0.1144 
    124 H124      -80.6202   22.4768  -73.0279 H         1 UNK         0.0793 
    125 H125      -81.6602   23.3837  -71.9428 H         1 UNK         0.0793 
    126 H126      -79.9956   23.8918  -72.1965 H         1 UNK         0.0793 
    127 H127      -80.9910   26.1304  -72.7642 H         1 UNK         0.2896 
@<TRIPOS>BOND
     1    1    2 1    
     2    1   67 1    
     3    1   68 1    
     4    1   69 1    
     5    2    3 2    
     6    2    4 am   BACKBONE|DICT|INTERRES
     7    4    5 1    
     8    4   70 1    
     9    5    6 1    
    10    5   65 1    
    11    5   71 1    
    12    6    7 1    
    13    6   72 1    
    14    6   73 1    
    15    7    8 1    
    16    8    9 1    
    17    8   74 1    
    18    8   75 1    
    19    9   10 ar   
    20    9   14 ar   
    21   10   11 ar   
    22   10   76 1    
    23   11   12 ar   
    24   11   48 1    
    25   12   13 ar   
    26   12   77 1    
    27   13   14 ar   
    28   13   15 1    
    29   14   78 1    
    30   15   16 1    
    31   15   79 1    
    32   15   80 1    
    33   16   17 1    
    34   17   18 1    
    35   17   81 1    
    36   17   82 1    
    37   18   19 1    
    38   18   22 1    
    39   18   83 1    
    40   19   20 am   BACKBONE|DICT|INTERRES
    41   19   21 2    
    42   20   84 1    
    43   20   85 1    
    44   22   23 am   BACKBONE|DICT|INTERRES
    45   22   86 1    
    46   23   24 2    
    47   23   25 1    
    48   25   26 1    
    49   25   27 1    
    50   25   87 1    
    51   26   88 1    
    52   26   89 1    
    53   26   90 1    
    54   27   28 am   BACKBONE|DICT|INTERRES
    55   27   91 1    
    56   28   29 2    
    57   28   30 1    
    58   30   31 1    
    59   30   32 1    
    60   30   92 1    
    61   31   93 1    
    62   31   94 1    
    63   31   95 1    
    64   32   33 am   BACKBONE|DICT|INTERRES
    65   32   96 1    
    66   33   34 2    
    67   33   35 1    
    68   35   36 1    
    69   35   37 1    
    70   35   97 1    
    71   36   98 1    
    72   36   99 1    
    73   36  100 1    
    74   37   38 am   BACKBONE|DICT|INTERRES
    75   37  101 1    
    76   38   39 2    
    77   38   40 1    
    78   40   41 1    
    79   40   42 1    
    80   40  102 1    
    81   41  103 1    
    82   41  104 1    
    83   41  105 1    
    84   42   43 am   BACKBONE|DICT|INTERRES
    85   42  106 1    
    86   43   44 2    
    87   43   45 1    
    88   45   46 1    
    89   45   49 1    
    90   45  107 1    
    91   46   47 1    
    92   46  108 1    
    93   46  109 1    
    94   47   48 1    
    95   48  110 1    
    96   48  111 1    
    97   49   50 am   BACKBONE|DICT|INTERRES
    98   49  112 1    
    99   50   51 2    
   100   50   52 1    
   101   52   53 1    
   102   52   54 1    
   103   52  113 1    
   104   53  114 1    
   105   53  115 1    
   106   53  116 1    
   107   54   55 am   BACKBONE|DICT|INTERRES
   108   54  117 1    
   109   55   56 2    
   110   55   57 1    
   111   57   58 1    
   112   57   59 1    
   113   57  118 1    
   114   58  119 1    
   115   58  120 1    
   116   58  121 1    
   117   59   60 am   BACKBONE|DICT|INTERRES
   118   59  122 1    
   119   60   61 2    
   120   60   62 1    
   121   62   63 1    
   122   62   64 1    
   123   62  123 1    
   124   63  124 1    
   125   63  125 1    
   126   63  126 1    
   127   64   65 am   BACKBONE|DICT|INTERRES
   128   64  127 1    
   129   65   66 2    
@<TRIPOS>SUBSTRUCTURE
     1 UNK         1 GROUP             0       ****    0 ROOT    
