@<TRIPOS>MOLECULE
3R135
127   129    1
SMALL
USER_CHARGES


@<TRIPOS>ATOM
      1 CA        -80.5605   29.2193  -70.5132 C.3       0 UNK        -0.1998 
      2 C         -81.3172   28.7501  -71.7455 C.2       0 UNK         0.4909 
      3 O         -82.5208   28.5016  -71.6717 O.2       0 UNK        -0.5240 
      4 N         -80.6167   28.6344  -72.8811 N.am      1 UNK        -0.4739 
      5 CA        -81.1720   28.2383  -74.1838 C.3       1 UNK         0.0864 
      6 C6        -80.1794   28.4775  -75.3502 C.3       11 UNK        -0.0881 
      7 S7        -79.4685   30.1590  -75.3791 S.3       11 UNK        -0.2682 
      8 C8        -77.7083   29.8200  -75.0547 C.3       11 UNK         0.0289 
      9 C9        -77.4438   29.4954  -73.5926 C.ar      11 UNK        -0.0687 
     10 C10       -77.4505   28.1742  -73.1324 C.ar      11 UNK        -0.0823 
     11 C11       -77.2456   27.8922  -71.7770 C.ar      11 UNK        -0.0830 
     12 C12       -76.9656   28.9463  -70.8975 C.ar      11 UNK        -0.1021 
     13 C13       -76.9397   30.2716  -71.3473 C.ar      11 UNK        -0.0753 
     14 C14       -77.2011   30.5351  -72.6946 C.ar      11 UNK        -0.0933 
     15 C15       -76.7093   31.4113  -70.3553 C.3       11 UNK         0.0166 
     16 S16       -75.6961   32.7869  -71.0096 S.3       11 UNK        -0.2615 
     17 C17       -74.0451   32.0189  -71.1092 C.3       11 UNK        -0.0865 
     18 CA        -73.6601   31.5739  -72.5509 C.3       10 UNK         0.0862 
     19 C         -72.8791   32.6741  -73.3296 C.2       10 UNK         0.5551 
     20 N         -71.6631   32.4192  -73.7976 N.am      10 UNK        -0.7319 
     21 O         -73.3863   33.7766  -73.5191 O.2       10 UNK        -0.5018 
     22 N         -73.0110   30.2562  -72.5139 N.am      10 UNK        -0.4509 
     23 C         -72.9940   29.3632  -73.5085 C.2       10 UNK         0.4899 
     24 O         -73.4517   29.5582  -74.6364 O.2       10 UNK        -0.4839 
     25 CA        -72.4149   27.9972  -73.1172 C.3       9 UNK         0.0222 
     26 CB        -73.4174   27.2577  -72.2223 C.3       9 UNK        -0.1966 
     27 N         -72.1122   27.1573  -74.2767 N.am      9 UNK        -0.4218 
     28 C         -70.9434   27.1959  -74.9296 C.2       9 UNK         0.5020 
     29 O         -70.0520   28.0072  -74.6717 O.2       9 UNK        -0.5274 
     30 CA        -70.6764   26.1422  -76.0142 C.3       8 UNK         0.0270 
     31 CB        -70.0705   24.8697  -75.3935 C.3       8 UNK        -0.1976 
     32 N         -71.8516   25.7899  -76.8162 N.am      8 UNK        -0.4313 
     33 C         -71.7873   25.4642  -78.1172 C.2       8 UNK         0.5041 
     34 O         -70.7405   25.4678  -78.7681 O.2       8 UNK        -0.5577 
     35 CA        -73.0853   25.0414  -78.8317 C.3       7 UNK         0.0284 
     36 CB        -73.0786   23.5279  -79.1030 C.3       7 UNK        -0.1958 
     37 N         -74.3006   25.3996  -78.0988 N.am      7 UNK        -0.4454 
     38 C         -74.7690   26.6520  -77.9976 C.2       7 UNK         0.5089 
     39 O         -74.2529   27.6129  -78.5690 O.2       7 UNK        -0.5125 
     40 CA        -76.0053   26.8973  -77.1131 C.3       6 UNK         0.0408 
     41 CB        -77.2171   27.2578  -77.9888 C.3       6 UNK        -0.1791 
     42 N         -76.3716   25.7894  -76.2250 N.am      6 UNK        -0.4762 
     43 C         -75.6184   25.3165  -75.2182 C.2       6 UNK         0.5007 
     44 O         -74.4916   25.7437  -74.9569 O.2       6 UNK        -0.5032 
     45 CA        -76.1779   24.0972  -74.4456 C.3       5 UNK         0.0783 
     46 C46       -77.0956   24.5165  -73.2702 C.3       11 UNK        -0.0857 
     47 S47       -76.2078   25.2703  -71.8681 S.3       11 UNK        -0.2512 
     48 C48       -77.4190   26.4749  -71.2316 C.3       11 UNK         0.0225 
     49 N         -76.8823   23.1544  -75.3245 N.am      5 UNK        -0.4615 
     50 C         -76.3792   22.5992  -76.4372 C.2       4 UNK         0.5053 
     51 O         -75.2088   22.7348  -76.7906 O.2       4 UNK        -0.5105 
     52 CA        -77.3367   21.8050  -77.3446 C.3       4 UNK         0.0263 
     53 CB        -77.0891   20.2959  -77.1906 C.3       4 UNK        -0.1981 
     54 N         -78.7627   22.0797  -77.1373 N.am      4 UNK        -0.4224 
     55 C         -79.3736   23.2703  -77.2359 C.2       3 UNK         0.4895 
     56 O         -78.7918   24.3243  -77.4979 O.2       3 UNK        -0.5091 
     57 CA        -80.8879   23.3004  -76.9517 C.3       3 UNK         0.0250 
     58 CB        -81.5657   21.9124  -77.0143 C.3       3 UNK        -0.1996 
     59 N         -81.2063   23.9525  -75.6762 N.am      3 UNK        -0.4254 
     60 C         -80.7015   23.6825  -74.4633 C.2       2 UNK         0.5004 
     61 O         -79.8001   22.8663  -74.2582 O.2       2 UNK        -0.5226 
     62 CA        -81.3040   24.4772  -73.2868 C.3       2 UNK         0.0269 
     63 CB        -80.8120   23.9740  -71.9165 C.3       2 UNK        -0.1926 
     64 N         -81.0304   25.9125  -73.3897 N.am      2 UNK        -0.4687 
     65 C         -81.6467   26.7703  -74.2161 C.2       1 UNK         0.5165 
     66 O         -82.5365   26.4354  -75.0001 O.2       1 UNK        -0.5079 
     67 H67       -80.1121   28.3706  -69.9976 H         1 UNK         0.0900 
     68 H68       -79.7706   29.9203  -70.7804 H         1 UNK         0.0900 
     69 H69       -81.2331   29.7246  -69.8204 H         1 UNK         0.0900 
     70 H70       -79.6385   28.8944  -72.8881 H         1 UNK         0.2959 
     71 H71       -82.0537   28.8588  -74.3595 H         1 UNK         0.1079 
     72 H72       -80.6865   28.3247  -76.3051 H         1 UNK         0.0837 
     73 H73       -79.3745   27.7419  -75.3291 H         1 UNK         0.0837 
     74 H74       -77.3741   29.0064  -75.6916 H         1 UNK         0.0685 
     75 H75       -77.1219   30.6917  -75.3492 H         1 UNK         0.0685 
     76 H76       -77.6475   27.3720  -73.8263 H         1 UNK         0.1434 
     77 H77       -76.8083   28.7397  -69.8476 H         1 UNK         0.1329 
     78 H78       -77.2172   31.5559  -73.0507 H         1 UNK         0.1335 
     79 H79       -77.6825   31.8104  -70.0671 H         1 UNK         0.0680 
     80 H80       -76.2490   31.0381  -69.4391 H         1 UNK         0.0680 
     81 H81       -73.3095   32.7126  -70.6970 H         1 UNK         0.1032 
     82 H82       -74.0398   31.1689  -70.4249 H         1 UNK         0.1032 
     83 H83       -74.5808   31.4317  -73.1187 H         1 UNK         0.0461 
     84 H84       -71.2460   31.5123  -73.6615 H         1 UNK         0.3453 
     85 H85       -71.1663   33.1351  -74.3038 H         1 UNK         0.3453 
     86 H86       -72.5837   30.0027  -71.6355 H         1 UNK         0.2984 
     87 H87       -71.5000   28.1557  -72.5418 H         1 UNK         0.0554 
     88 H88       -73.1028   26.2348  -72.0150 H         1 UNK         0.0847 
     89 H89       -74.3972   27.2229  -72.6976 H         1 UNK         0.0847 
     90 H90       -73.5461   27.7592  -71.2626 H         1 UNK         0.0847 
     91 H91       -72.8532   26.5206  -74.5577 H         1 UNK         0.3141 
     92 H92       -69.9224   26.5852  -76.6691 H         1 UNK         0.0743 
     93 H93       -70.7881   24.3539  -74.7542 H         1 UNK         0.0784 
     94 H94       -69.7437   24.1700  -76.1630 H         1 UNK         0.0784 
     95 H95       -69.1984   25.1075  -74.7827 H         1 UNK         0.0784 
     96 H96       -72.7533   25.7817  -76.3551 H         1 UNK         0.3213 
     97 H97       -73.1068   25.5546  -79.7958 H         1 UNK         0.0855 
     98 H98       -72.9734   22.9538  -78.1819 H         1 UNK         0.0814 
     99 H99       -72.2449   23.2532  -79.7505 H         1 UNK         0.0814 
    100 H100      -73.9941   23.2052  -79.5990 H         1 UNK         0.0814 
    101 H101      -74.7658   24.6527  -77.5940 H         1 UNK         0.3105 
    102 H102      -75.7561   27.7499  -76.4805 H         1 UNK         0.0547 
    103 H103      -77.0189   28.1510  -78.5828 H         1 UNK         0.0837 
    104 H104      -77.4613   26.4532  -78.6836 H         1 UNK         0.0837 
    105 H105      -78.1055   27.4580  -77.3918 H         1 UNK         0.0837 
    106 H106      -77.2415   25.3133  -76.4438 H         1 UNK         0.3020 
    107 H107      -75.3185   23.5600  -74.0384 H         1 UNK         0.1245 
    108 H108      -77.5878   23.6306  -72.8661 H         1 UNK         0.0781 
    109 H109      -77.9011   25.1639  -73.6169 H         1 UNK         0.0781 
    110 H110      -77.3297   26.4820  -70.1442 H         1 UNK         0.0836 
    111 H111      -78.4321   26.1297  -71.4361 H         1 UNK         0.0836 
    112 H112      -77.8561   22.9771  -75.1000 H         1 UNK         0.3022 
    113 H113      -77.1019   22.0872  -78.3729 H         1 UNK         0.0747 
    114 H114      -77.6795   19.7206  -77.9040 H         1 UNK         0.0793 
    115 H115      -76.0411   20.0510  -77.3703 H         1 UNK         0.0793 
    116 H116      -77.3378   19.9473  -76.1874 H         1 UNK         0.0793 
    117 H117      -79.3324   21.2897  -76.8713 H         1 UNK         0.3047 
    118 H118      -81.3282   23.9185  -77.7357 H         1 UNK         0.0822 
    119 H119      -82.6490   22.0072  -76.9369 H         1 UNK         0.0807 
    120 H120      -81.2401   21.2540  -76.2079 H         1 UNK         0.0807 
    121 H121      -81.3601   21.4120  -77.9618 H         1 UNK         0.0807 
    122 H122      -81.8829   24.7088  -75.7253 H         1 UNK         0.2946 
    123 H123      -82.3857   24.3260  -73.3218 H         1 UNK         0.1144 
    124 H124      -81.0361   22.9140  -71.7885 H         1 UNK         0.0793 
    125 H125      -81.2997   24.5065  -71.0998 H         1 UNK         0.0793 
    126 H126      -79.7354   24.0928  -71.7991 H         1 UNK         0.0793 
    127 H127      -80.3187   26.2839  -72.7797 H         1 UNK         0.2896 
@<TRIPOS>BOND
     1    1    2 1    
     2    1   67 1    
     3    1   68 1    
     4    1   69 1    
     5    2    3 2    
     6    2    4 am   BACKBONE|DICT|INTERRES
     7    4    5 1    
     8    4   70 1    
     9    5    6 1    
    10    5   65 1    
    11    5   71 1    
    12    6    7 1    
    13    6   72 1    
    14    6   73 1    
    15    7    8 1    
    16    8    9 1    
    17    8   74 1    
    18    8   75 1    
    19    9   10 ar   
    20    9   14 ar   
    21   10   11 ar   
    22   10   76 1    
    23   11   12 ar   
    24   11   48 1    
    25   12   13 ar   
    26   12   77 1    
    27   13   14 ar   
    28   13   15 1    
    29   14   78 1    
    30   15   16 1    
    31   15   79 1    
    32   15   80 1    
    33   16   17 1    
    34   17   18 1    
    35   17   81 1    
    36   17   82 1    
    37   18   19 1    
    38   18   22 1    
    39   18   83 1    
    40   19   20 am   BACKBONE|DICT|INTERRES
    41   19   21 2    
    42   20   84 1    
    43   20   85 1    
    44   22   23 am   BACKBONE|DICT|INTERRES
    45   22   86 1    
    46   23   24 2    
    47   23   25 1    
    48   25   26 1    
    49   25   27 1    
    50   25   87 1    
    51   26   88 1    
    52   26   89 1    
    53   26   90 1    
    54   27   28 am   BACKBONE|DICT|INTERRES
    55   27   91 1    
    56   28   29 2    
    57   28   30 1    
    58   30   31 1    
    59   30   32 1    
    60   30   92 1    
    61   31   93 1    
    62   31   94 1    
    63   31   95 1    
    64   32   33 am   BACKBONE|DICT|INTERRES
    65   32   96 1    
    66   33   34 2    
    67   33   35 1    
    68   35   36 1    
    69   35   37 1    
    70   35   97 1    
    71   36   98 1    
    72   36   99 1    
    73   36  100 1    
    74   37   38 am   BACKBONE|DICT|INTERRES
    75   37  101 1    
    76   38   39 2    
    77   38   40 1    
    78   40   41 1    
    79   40   42 1    
    80   40  102 1    
    81   41  103 1    
    82   41  104 1    
    83   41  105 1    
    84   42   43 am   BACKBONE|DICT|INTERRES
    85   42  106 1    
    86   43   44 2    
    87   43   45 1    
    88   45   46 1    
    89   45   49 1    
    90   45  107 1    
    91   46   47 1    
    92   46  108 1    
    93   46  109 1    
    94   47   48 1    
    95   48  110 1    
    96   48  111 1    
    97   49   50 am   BACKBONE|DICT|INTERRES
    98   49  112 1    
    99   50   51 2    
   100   50   52 1    
   101   52   53 1    
   102   52   54 1    
   103   52  113 1    
   104   53  114 1    
   105   53  115 1    
   106   53  116 1    
   107   54   55 am   BACKBONE|DICT|INTERRES
   108   54  117 1    
   109   55   56 2    
   110   55   57 1    
   111   57   58 1    
   112   57   59 1    
   113   57  118 1    
   114   58  119 1    
   115   58  120 1    
   116   58  121 1    
   117   59   60 am   BACKBONE|DICT|INTERRES
   118   59  122 1    
   119   60   61 2    
   120   60   62 1    
   121   62   63 1    
   122   62   64 1    
   123   62  123 1    
   124   63  124 1    
   125   63  125 1    
   126   63  126 1    
   127   64   65 am   BACKBONE|DICT|INTERRES
   128   64  127 1    
   129   65   66 2    
@<TRIPOS>SUBSTRUCTURE
     1 UNK         1 GROUP             0       ****    0 ROOT    
