@<TRIPOS>MOLECULE
3R135
127   129    1
SMALL
USER_CHARGES


@<TRIPOS>ATOM
      1 CA        -78.9556   29.9617  -71.0040 C.3       0 UNK        -0.1998 
      2 C         -80.2778   29.5931  -71.6540 C.2       0 UNK         0.4909 
      3 O         -81.3138   29.6075  -70.9885 O.2       0 UNK        -0.5240 
      4 N         -80.2527   29.2647  -72.9537 N.am      1 UNK        -0.4739 
      5 CA        -81.4413   28.8822  -73.7292 C.3       1 UNK         0.0864 
      6 C6        -81.2473   29.1397  -75.2508 C.3       11 UNK        -0.0881 
      7 S7        -80.3747   27.8410  -76.2008 S.3       11 UNK        -0.2682 
      8 C8        -78.7020   28.5294  -76.4001 C.3       11 UNK         0.0289 
      9 C9        -77.8840   28.4530  -75.1191 C.ar      11 UNK        -0.0687 
     10 C10       -77.6861   27.2265  -74.4788 C.ar      11 UNK        -0.0823 
     11 C11       -76.9021   27.1441  -73.3256 C.ar      11 UNK        -0.0830 
     12 C12       -76.2922   28.2989  -72.8280 C.ar      11 UNK        -0.1021 
     13 C13       -76.4802   29.5381  -73.4578 C.ar      11 UNK        -0.0753 
     14 C14       -77.2878   29.6033  -74.5972 C.ar      11 UNK        -0.0933 
     15 C15       -75.7942   30.8174  -72.9785 C.3       11 UNK         0.0166 
     16 S16       -75.3254   30.8199  -71.2140 S.3       11 UNK        -0.2615 
     17 C17       -73.7969   31.8204  -71.2550 C.3       11 UNK        -0.0865 
     18 CA        -72.5002   30.9676  -71.3092 C.3       10 UNK         0.0862 
     19 C         -72.2042   30.2512  -69.9571 C.2       10 UNK         0.5551 
     20 N         -72.1294   28.9266  -69.9065 N.am      10 UNK        -0.7319 
     21 O         -72.0241   30.9148  -68.9387 O.2       10 UNK        -0.5018 
     22 N         -72.4746   30.1008  -72.4997 N.am      10 UNK        -0.4509 
     23 C         -71.3698   29.5993  -73.0649 C.2       10 UNK         0.4899 
     24 O         -70.2290   29.8201  -72.6580 O.2       10 UNK        -0.4839 
     25 CA        -71.5647   28.6956  -74.2953 C.3       9 UNK         0.0222 
     26 CB        -71.6620   27.2232  -73.8666 C.3       9 UNK        -0.1966 
     27 N         -72.7308   29.0358  -75.1170 N.am      9 UNK        -0.4218 
     28 C         -72.8854   30.1637  -75.8226 C.2       9 UNK         0.5020 
     29 O         -72.0656   31.0837  -75.8356 O.2       9 UNK        -0.5274 
     30 CA        -74.1585   30.2497  -76.6884 C.3       8 UNK         0.0270 
     31 CB        -74.4130   31.6663  -77.2354 C.3       8 UNK        -0.1976 
     32 N         -74.1159   29.3004  -77.8050 N.am      8 UNK        -0.4313 
     33 C         -74.3045   27.9813  -77.6843 C.2       8 UNK         0.5041 
     34 O         -74.5732   27.4299  -76.6129 O.2       8 UNK        -0.5577 
     35 CA        -74.1268   27.1296  -78.9468 C.3       7 UNK         0.0284 
     36 CB        -72.6329   27.0149  -79.3136 C.3       7 UNK        -0.1958 
     37 N         -74.6846   25.8139  -78.6541 N.am      7 UNK        -0.4454 
     38 C         -74.8917   24.7985  -79.4980 C.2       7 UNK         0.5089 
     39 O         -74.6586   24.8645  -80.7060 O.2       7 UNK        -0.5125 
     40 CA        -75.4848   23.4965  -78.9123 C.3       6 UNK         0.0408 
     41 CB        -74.7786   22.2400  -79.4627 C.3       6 UNK        -0.1791 
     42 N         -75.5638   23.4556  -77.4430 N.am      6 UNK        -0.4762 
     43 C         -74.5502   23.4551  -76.5585 C.2       6 UNK         0.5007 
     44 O         -73.3617   23.4555  -76.8795 O.2       6 UNK        -0.5032 
     45 CA        -74.9182   23.5067  -75.0587 C.3       5 UNK         0.0783 
     46 C46       -74.8181   24.9674  -74.5608 C.3       11 UNK        -0.0857 
     47 S47       -75.0250   25.1488  -72.7584 S.3       11 UNK        -0.2512 
     48 C48       -76.7190   25.8073  -72.6169 C.3       11 UNK         0.0225 
     49 N         -76.2385   22.9314  -74.7841 N.am      5 UNK        -0.4615 
     50 C         -76.5498   21.6340  -74.8888 C.2       4 UNK         0.5053 
     51 O         -75.7281   20.7546  -75.1481 O.2       4 UNK        -0.5105 
     52 CA        -78.0264   21.2452  -74.6813 C.3       4 UNK         0.0263 
     53 CB        -78.2306   20.6778  -73.2672 C.3       4 UNK        -0.1981 
     54 N         -79.0046   22.3190  -74.9027 N.am      4 UNK        -0.4224 
     55 C         -79.1732   23.0421  -76.0177 C.2       3 UNK         0.4895 
     56 O         -78.4388   22.9565  -77.0017 O.2       3 UNK        -0.5091 
     57 CA        -80.3346   24.0538  -76.0483 C.3       3 UNK         0.0250 
     58 CB        -81.6058   23.4075  -76.6306 C.3       3 UNK        -0.1996 
     59 N         -80.6219   24.7424  -74.7784 N.am      3 UNK        -0.4254 
     60 C         -81.0801   24.2431  -73.6195 C.2       2 UNK         0.5004 
     61 O         -81.2861   23.0441  -73.4299 O.2       2 UNK        -0.5226 
     62 CA        -81.3098   25.2288  -72.4579 C.3       2 UNK         0.0269 
     63 CB        -80.4292   24.8628  -71.2506 C.3       2 UNK        -0.1926 
     64 N         -81.0514   26.6256  -72.8194 N.am      2 UNK        -0.4687 
     65 C         -81.9326   27.4514  -73.4039 C.2       1 UNK         0.5165 
     66 O         -83.0833   27.1221  -73.6945 O.2       1 UNK        -0.5079 
     67 H67       -79.1148   30.3776  -70.0096 H         1 UNK         0.0900 
     68 H68       -78.4321   30.7093  -71.5981 H         1 UNK         0.0900 
     69 H69       -78.3188   29.0833  -70.9055 H         1 UNK         0.0900 
     70 H70       -79.3728   29.2532  -73.4539 H         1 UNK         0.2959 
     71 H71       -82.2497   29.5441  -73.4088 H         1 UNK         0.1079 
     72 H72       -82.2311   29.2440  -75.7120 H         1 UNK         0.0837 
     73 H73       -80.7596   30.1024  -75.4121 H         1 UNK         0.0837 
     74 H74       -78.1817   27.9624  -77.1734 H         1 UNK         0.0685 
     75 H75       -78.7732   29.5541  -76.7679 H         1 UNK         0.0685 
     76 H76       -78.1367   26.3344  -74.8895 H         1 UNK         0.1434 
     77 H77       -75.6653   28.2165  -71.9516 H         1 UNK         0.1329 
     78 H78       -77.4258   30.5513  -75.0999 H         1 UNK         0.1335 
     79 H79       -76.4455   31.6756  -73.1514 H         1 UNK         0.0680 
     80 H80       -74.9128   30.9750  -73.5992 H         1 UNK         0.0680 
     81 H81       -73.7890   32.4710  -70.3783 H         1 UNK         0.1032 
     82 H82       -73.8287   32.4989  -72.1088 H         1 UNK         0.1032 
     83 H83       -71.6790   31.6770  -71.4294 H         1 UNK         0.0461 
     84 H84       -72.2746   28.3771  -70.7371 H         1 UNK         0.3453 
     85 H85       -71.9317   28.4754  -69.0275 H         1 UNK         0.3453 
     86 H86       -73.3731   29.8358  -72.8733 H         1 UNK         0.2984 
     87 H87       -70.6783   28.8067  -74.9232 H         1 UNK         0.0554 
     88 H88       -71.6816   26.5602  -74.7317 H         1 UNK         0.0847 
     89 H89       -72.5585   27.0329  -73.2753 H         1 UNK         0.0847 
     90 H90       -70.8029   26.9334  -73.2597 H         1 UNK         0.0847 
     91 H91       -73.4346   28.3138  -75.2538 H         1 UNK         0.3141 
     92 H92       -75.0019   29.9904  -76.0482 H         1 UNK         0.0743 
     93 H93       -75.3581   31.7179  -77.7764 H         1 UNK         0.0784 
     94 H94       -74.4664   32.3932  -76.4237 H         1 UNK         0.0784 
     95 H95       -73.6203   31.9893  -77.9114 H         1 UNK         0.0784 
     96 H96       -73.8608   29.6767  -78.7071 H         1 UNK         0.3213 
     97 H97       -74.6877   27.5825  -79.7667 H         1 UNK         0.0855 
     98 H98       -72.0602   26.5450  -78.5127 H         1 UNK         0.0814 
     99 H99       -72.1926   27.9953  -79.4982 H         1 UNK         0.0814 
    100 H100      -72.4843   26.4258  -80.2184 H         1 UNK         0.0814 
    101 H101      -74.9235   25.7016  -77.6756 H         1 UNK         0.3105 
    102 H102      -76.5192   23.4640  -79.2573 H         1 UNK         0.0547 
    103 H103      -74.8655   22.1862  -80.5485 H         1 UNK         0.0837 
    104 H104      -73.7149   22.2340  -79.2243 H         1 UNK         0.0837 
    105 H105      -75.2193   21.3286  -79.0590 H         1 UNK         0.0837 
    106 H106      -76.5125   23.4130  -77.0797 H         1 UNK         0.3020 
    107 H107      -74.1738   22.9082  -74.5283 H         1 UNK         0.1245 
    108 H108      -75.5434   25.5915  -75.0811 H         1 UNK         0.0781 
    109 H109      -73.8408   25.3847  -74.8084 H         1 UNK         0.0781 
    110 H110      -76.9552   25.9326  -71.5593 H         1 UNK         0.0836 
    111 H111      -77.4221   25.0660  -72.9976 H         1 UNK         0.0836 
    112 H112      -76.9738   23.5789  -74.5512 H         1 UNK         0.3022 
    113 H113      -78.2500   20.4568  -75.4026 H         1 UNK         0.0747 
    114 H114      -79.2429   20.2948  -73.1352 H         1 UNK         0.0793 
    115 H115      -77.5455   19.8514  -73.0724 H         1 UNK         0.0793 
    116 H116      -78.0560   21.4349  -72.5014 H         1 UNK         0.0793 
    117 H117      -79.7085   22.4487  -74.1789 H         1 UNK         0.3047 
    118 H118      -80.0283   24.8397  -76.7406 H         1 UNK         0.0822 
    119 H119      -82.4050   24.1401  -76.7438 H         1 UNK         0.0807 
    120 H120      -81.9785   22.5986  -76.0016 H         1 UNK         0.0807 
    121 H121      -81.4110   22.9861  -77.6178 H         1 UNK         0.0807 
    122 H122      -80.4975   25.7456  -74.8114 H         1 UNK         0.2946 
    123 H123      -82.3558   25.1265  -72.1591 H         1 UNK         0.1144 
    124 H124      -80.6179   25.5274  -70.4072 H         1 UNK         0.0793 
    125 H125      -79.3677   24.9175  -71.4897 H         1 UNK         0.0793 
    126 H126      -80.6333   23.8469  -70.9092 H         1 UNK         0.0793 
    127 H127      -80.1346   26.9926  -72.6083 H         1 UNK         0.2896 
@<TRIPOS>BOND
     1    1    2 1    
     2    1   67 1    
     3    1   68 1    
     4    1   69 1    
     5    2    3 2    
     6    2    4 am   BACKBONE|DICT|INTERRES
     7    4    5 1    
     8    4   70 1    
     9    5    6 1    
    10    5   65 1    
    11    5   71 1    
    12    6    7 1    
    13    6   72 1    
    14    6   73 1    
    15    7    8 1    
    16    8    9 1    
    17    8   74 1    
    18    8   75 1    
    19    9   10 ar   
    20    9   14 ar   
    21   10   11 ar   
    22   10   76 1    
    23   11   12 ar   
    24   11   48 1    
    25   12   13 ar   
    26   12   77 1    
    27   13   14 ar   
    28   13   15 1    
    29   14   78 1    
    30   15   16 1    
    31   15   79 1    
    32   15   80 1    
    33   16   17 1    
    34   17   18 1    
    35   17   81 1    
    36   17   82 1    
    37   18   19 1    
    38   18   22 1    
    39   18   83 1    
    40   19   20 am   BACKBONE|DICT|INTERRES
    41   19   21 2    
    42   20   84 1    
    43   20   85 1    
    44   22   23 am   BACKBONE|DICT|INTERRES
    45   22   86 1    
    46   23   24 2    
    47   23   25 1    
    48   25   26 1    
    49   25   27 1    
    50   25   87 1    
    51   26   88 1    
    52   26   89 1    
    53   26   90 1    
    54   27   28 am   BACKBONE|DICT|INTERRES
    55   27   91 1    
    56   28   29 2    
    57   28   30 1    
    58   30   31 1    
    59   30   32 1    
    60   30   92 1    
    61   31   93 1    
    62   31   94 1    
    63   31   95 1    
    64   32   33 am   BACKBONE|DICT|INTERRES
    65   32   96 1    
    66   33   34 2    
    67   33   35 1    
    68   35   36 1    
    69   35   37 1    
    70   35   97 1    
    71   36   98 1    
    72   36   99 1    
    73   36  100 1    
    74   37   38 am   BACKBONE|DICT|INTERRES
    75   37  101 1    
    76   38   39 2    
    77   38   40 1    
    78   40   41 1    
    79   40   42 1    
    80   40  102 1    
    81   41  103 1    
    82   41  104 1    
    83   41  105 1    
    84   42   43 am   BACKBONE|DICT|INTERRES
    85   42  106 1    
    86   43   44 2    
    87   43   45 1    
    88   45   46 1    
    89   45   49 1    
    90   45  107 1    
    91   46   47 1    
    92   46  108 1    
    93   46  109 1    
    94   47   48 1    
    95   48  110 1    
    96   48  111 1    
    97   49   50 am   BACKBONE|DICT|INTERRES
    98   49  112 1    
    99   50   51 2    
   100   50   52 1    
   101   52   53 1    
   102   52   54 1    
   103   52  113 1    
   104   53  114 1    
   105   53  115 1    
   106   53  116 1    
   107   54   55 am   BACKBONE|DICT|INTERRES
   108   54  117 1    
   109   55   56 2    
   110   55   57 1    
   111   57   58 1    
   112   57   59 1    
   113   57  118 1    
   114   58  119 1    
   115   58  120 1    
   116   58  121 1    
   117   59   60 am   BACKBONE|DICT|INTERRES
   118   59  122 1    
   119   60   61 2    
   120   60   62 1    
   121   62   63 1    
   122   62   64 1    
   123   62  123 1    
   124   63  124 1    
   125   63  125 1    
   126   63  126 1    
   127   64   65 am   BACKBONE|DICT|INTERRES
   128   64  127 1    
   129   65   66 2    
@<TRIPOS>SUBSTRUCTURE
     1 UNK         1 GROUP             0       ****    0 ROOT    
