@<TRIPOS>MOLECULE
3R135
127   129    1
SMALL
USER_CHARGES


@<TRIPOS>ATOM
      1 CA        -80.5765   22.0091  -69.6936 C.3       0 UNK        -0.1998 
      2 C         -81.1271   23.0536  -70.6526 C.2       0 UNK         0.4909 
      3 O         -82.3270   23.3289  -70.6362 O.2       0 UNK        -0.5240 
      4 N         -80.2604   23.6333  -71.4939 N.am      1 UNK        -0.4739 
      5 CA        -80.6069   24.6824  -72.4672 C.3       1 UNK         0.0864 
      6 C6        -79.3872   25.5688  -72.8337 C.3       11 UNK        -0.0881 
      7 S7        -78.5270   26.2243  -71.3606 S.3       11 UNK        -0.2682 
      8 C8        -79.1148   27.9512  -71.2664 C.3       11 UNK         0.0289 
      9 C9        -78.1505   28.9526  -71.8975 C.ar      11 UNK        -0.0687 
     10 C10       -78.6259   29.9430  -72.7649 C.ar      11 UNK        -0.0823 
     11 C11       -77.7485   30.8823  -73.3189 C.ar      11 UNK        -0.0830 
     12 C12       -76.3888   30.8238  -73.0045 C.ar      11 UNK        -0.1021 
     13 C13       -75.9009   29.8538  -72.1251 C.ar      11 UNK        -0.0753 
     14 C14       -76.7883   28.9253  -71.5738 C.ar      11 UNK        -0.0933 
     15 C15       -74.4144   29.7713  -71.8019 C.3       11 UNK         0.0166 
     16 S16       -73.6697   31.3881  -71.3994 S.3       11 UNK        -0.2615 
     17 C17       -71.9221   30.9176  -71.1531 C.3       11 UNK        -0.0865 
     18 CA        -71.0376   31.1317  -72.4118 C.3       10 UNK         0.0862 
     19 C         -69.5466   30.8273  -72.0769 C.2       10 UNK         0.5551 
     20 N         -68.9594   29.7395  -72.5647 N.am      10 UNK        -0.7319 
     21 O         -68.9140   31.5961  -71.3573 O.2       10 UNK        -0.5018 
     22 N         -71.5617   30.3860  -73.5640 N.am      10 UNK        -0.4509 
     23 C         -71.1713   30.5129  -74.8375 C.2       10 UNK         0.4899 
     24 O         -70.4025   31.3901  -75.2332 O.2       10 UNK        -0.4839 
     25 CA        -71.7356   29.4731  -75.8317 C.3       9 UNK         0.0222 
     26 CB        -70.7499   29.1585  -76.9762 C.3       9 UNK        -0.1966 
     27 N         -72.2096   28.2278  -75.2018 N.am      9 UNK        -0.4218 
     28 C         -71.4888   27.3767  -74.4498 C.2       9 UNK         0.5020 
     29 O         -70.2998   27.5554  -74.1805 O.2       9 UNK        -0.5274 
     30 CA        -72.1892   26.1454  -73.8543 C.3       8 UNK         0.0270 
     31 CB        -72.5669   26.3794  -72.3804 C.3       8 UNK        -0.1976 
     32 N         -73.3725   25.7131  -74.6030 N.am      8 UNK        -0.4313 
     33 C         -73.7167   24.4300  -74.7884 C.2       8 UNK         0.5041 
     34 O         -73.0767   23.4759  -74.3430 O.2       8 UNK        -0.5577 
     35 CA        -74.9963   24.1490  -75.6002 C.3       7 UNK         0.0284 
     36 CB        -76.1815   23.9718  -74.6369 C.3       7 UNK        -0.1958 
     37 N         -75.3150   25.1950  -76.5771 N.am      7 UNK        -0.4454 
     38 C         -74.5249   25.5550  -77.6023 C.2       7 UNK         0.5089 
     39 O         -73.4975   24.9500  -77.9095 O.2       7 UNK        -0.5125 
     40 CA        -74.9029   26.8171  -78.4054 C.3       6 UNK         0.0408 
     41 CB        -75.3476   26.4353  -79.8264 C.3       6 UNK        -0.1791 
     42 N         -75.9410   27.6515  -77.7947 N.am      6 UNK        -0.4762 
     43 C         -75.8844   28.2581  -76.5991 C.2       6 UNK         0.5007 
     44 O         -74.9029   28.2115  -75.8547 O.2       6 UNK        -0.5032 
     45 CA        -77.1781   28.9508  -76.1237 C.3       5 UNK         0.0783 
     46 C46       -77.1444   30.4711  -76.4204 C.3       11 UNK        -0.0857 
     47 S47       -78.6874   31.3070  -75.9043 S.3       11 UNK        -0.2512 
     48 C48       -78.2573   31.9637  -74.2618 C.3       11 UNK         0.0225 
     49 N         -78.3913   28.3167  -76.6579 N.am      5 UNK        -0.4615 
     50 C         -78.7596   27.0517  -76.4308 C.2       4 UNK         0.5053 
     51 O         -78.0819   26.2651  -75.7673 O.2       4 UNK        -0.5105 
     52 CA        -80.1026   26.5980  -77.0320 C.3       4 UNK         0.0263 
     53 CB        -80.4490   27.2857  -78.3728 C.3       4 UNK        -0.1981 
     54 N         -80.1711   25.1388  -77.1489 N.am      4 UNK        -0.4224 
     55 C         -79.4102   24.3430  -77.9188 C.2       3 UNK         0.4895 
     56 O         -78.5994   24.7631  -78.7460 O.2       3 UNK        -0.5091 
     57 CA        -79.5604   22.8200  -77.7254 C.3       3 UNK         0.0250 
     58 CB        -78.1992   22.1004  -77.7739 C.3       3 UNK        -0.1996 
     59 N         -80.2372   22.4825  -76.4680 N.am      3 UNK        -0.4254 
     60 C         -81.5545   22.2774  -76.3393 C.2       2 UNK         0.5004 
     61 O         -82.3466   22.2858  -77.2816 O.2       2 UNK        -0.5226 
     62 CA        -82.0851   22.0566  -74.9133 C.3       2 UNK         0.0269 
     63 CB        -82.1026   20.5579  -74.5716 C.3       2 UNK        -0.1926 
     64 N         -81.3450   22.7803  -73.8718 N.am      2 UNK        -0.4687 
     65 C         -81.2940   24.1155  -73.7334 C.2       1 UNK         0.5165 
     66 O         -81.7726   24.8933  -74.5593 O.2       1 UNK        -0.5079 
     67 H67       -81.0665   21.0503  -69.8606 H         1 UNK         0.0900 
     68 H68       -80.7618   22.3120  -68.6634 H         1 UNK         0.0900 
     69 H69       -79.5028   21.8679  -69.8169 H         1 UNK         0.0900 
     70 H70       -79.2808   23.3897  -71.4478 H         1 UNK         0.2959 
     71 H71       -81.3463   25.3362  -71.9988 H         1 UNK         0.1079 
     72 H72       -79.6889   26.4008  -73.4728 H         1 UNK         0.0837 
     73 H73       -78.6647   24.9932  -73.4128 H         1 UNK         0.0837 
     74 H74       -79.2329   28.2140  -70.2144 H         1 UNK         0.0685 
     75 H75       -80.1085   28.0250  -71.7107 H         1 UNK         0.0685 
     76 H76       -79.6780   29.9866  -73.0120 H         1 UNK         0.1434 
     77 H77       -75.7054   31.5377  -73.4438 H         1 UNK         0.1329 
     78 H78       -76.4181   28.1700  -70.8942 H         1 UNK         0.1335 
     79 H79       -74.2416   29.0909  -70.9664 H         1 UNK         0.0680 
     80 H80       -73.9121   29.3442  -72.6685 H         1 UNK         0.0680 
     81 H81       -71.8666   29.8812  -70.8140 H         1 UNK         0.1032 
     82 H82       -71.5431   31.5191  -70.3243 H         1 UNK         0.1032 
     83 H83       -71.0820   32.1906  -72.6737 H         1 UNK         0.0461 
     84 H84       -69.4681   29.0895  -73.1547 H         1 UNK         0.3453 
     85 H85       -67.9943   29.5590  -72.3394 H         1 UNK         0.3453 
     86 H86       -72.1958   29.6353  -73.3467 H         1 UNK         0.2984 
     87 H87       -72.6176   29.9360  -76.2767 H         1 UNK         0.0554 
     88 H88       -70.5041   30.0576  -77.5425 H         1 UNK         0.0847 
     89 H89       -71.1747   28.4420  -77.6792 H         1 UNK         0.0847 
     90 H90       -69.8131   28.7455  -76.6006 H         1 UNK         0.0847 
     91 H91       -73.2028   28.0586  -75.3493 H         1 UNK         0.3141 
     92 H92       -71.4392   25.3517  -73.8851 H         1 UNK         0.0743 
     93 H93       -71.7337   26.8021  -71.8167 H         1 UNK         0.0784 
     94 H94       -73.4131   27.0577  -72.2837 H         1 UNK         0.0784 
     95 H95       -72.8405   25.4424  -71.8949 H         1 UNK         0.0784 
     96 H96       -73.9639   26.4281  -75.0081 H         1 UNK         0.3213 
     97 H97       -74.8482   23.2165  -76.1487 H         1 UNK         0.0855 
     98 H98       -76.3343   24.8637  -74.0274 H         1 UNK         0.0814 
     99 H99       -76.0100   23.1376  -73.9553 H         1 UNK         0.0814 
    100 H100      -77.1108   23.7722  -75.1679 H         1 UNK         0.0814 
    101 H101      -76.1699   25.7177  -76.4132 H         1 UNK         0.3105 
    102 H102      -74.0002   27.4268  -78.4813 H         1 UNK         0.0547 
    103 H103      -74.5813   25.8462  -80.3323 H         1 UNK         0.0837 
    104 H104      -76.2609   25.8389  -79.8151 H         1 UNK         0.0837 
    105 H105      -75.5291   27.3186  -80.4388 H         1 UNK         0.0837 
    106 H106      -76.8118   27.7152  -78.3026 H         1 UNK         0.3020 
    107 H107      -77.2047   28.8106  -75.0415 H         1 UNK         0.1245 
    108 H108      -77.0145   30.6473  -77.4899 H         1 UNK         0.0781 
    109 H109      -76.2913   30.9447  -75.9313 H         1 UNK         0.0781 
    110 H110      -79.1394   32.4364  -73.8276 H         1 UNK         0.0836 
    111 H111      -77.5164   32.7563  -74.3791 H         1 UNK         0.0836 
    112 H112      -79.0061   28.9192  -77.1855 H         1 UNK         0.3022 
    113 H113      -80.8687   26.8761  -76.3069 H         1 UNK         0.0747 
    114 H114      -81.3545   26.8628  -78.8080 H         1 UNK         0.0793 
    115 H115      -79.6491   27.1795  -79.1065 H         1 UNK         0.0793 
    116 H116      -80.6338   28.3519  -78.2387 H         1 UNK         0.0793 
    117 H117      -80.7809   24.6968  -76.4718 H         1 UNK         0.3047 
    118 H118      -80.1528   22.4569  -78.5679 H         1 UNK         0.0822 
    119 H119      -78.3152   21.0240  -77.6459 H         1 UNK         0.0807 
    120 H120      -77.5199   22.4588  -77.0020 H         1 UNK         0.0807 
    121 H121      -77.7070   22.2566  -78.7347 H         1 UNK         0.0807 
    122 H122      -79.6687   22.4696  -75.6333 H         1 UNK         0.2946 
    123 H123      -83.1149   22.4216  -74.8971 H         1 UNK         0.1144 
    124 H124      -82.6685   19.9943  -75.3150 H         1 UNK         0.0793 
    125 H125      -82.5730   20.3765  -73.6049 H         1 UNK         0.0793 
    126 H126      -81.0965   20.1379  -74.5409 H         1 UNK         0.0793 
    127 H127      -80.9233   22.2225  -73.1433 H         1 UNK         0.2896 
@<TRIPOS>BOND
     1    1    2 1    
     2    1   67 1    
     3    1   68 1    
     4    1   69 1    
     5    2    3 2    
     6    2    4 am   BACKBONE|DICT|INTERRES
     7    4    5 1    
     8    4   70 1    
     9    5    6 1    
    10    5   65 1    
    11    5   71 1    
    12    6    7 1    
    13    6   72 1    
    14    6   73 1    
    15    7    8 1    
    16    8    9 1    
    17    8   74 1    
    18    8   75 1    
    19    9   10 ar   
    20    9   14 ar   
    21   10   11 ar   
    22   10   76 1    
    23   11   12 ar   
    24   11   48 1    
    25   12   13 ar   
    26   12   77 1    
    27   13   14 ar   
    28   13   15 1    
    29   14   78 1    
    30   15   16 1    
    31   15   79 1    
    32   15   80 1    
    33   16   17 1    
    34   17   18 1    
    35   17   81 1    
    36   17   82 1    
    37   18   19 1    
    38   18   22 1    
    39   18   83 1    
    40   19   20 am   BACKBONE|DICT|INTERRES
    41   19   21 2    
    42   20   84 1    
    43   20   85 1    
    44   22   23 am   BACKBONE|DICT|INTERRES
    45   22   86 1    
    46   23   24 2    
    47   23   25 1    
    48   25   26 1    
    49   25   27 1    
    50   25   87 1    
    51   26   88 1    
    52   26   89 1    
    53   26   90 1    
    54   27   28 am   BACKBONE|DICT|INTERRES
    55   27   91 1    
    56   28   29 2    
    57   28   30 1    
    58   30   31 1    
    59   30   32 1    
    60   30   92 1    
    61   31   93 1    
    62   31   94 1    
    63   31   95 1    
    64   32   33 am   BACKBONE|DICT|INTERRES
    65   32   96 1    
    66   33   34 2    
    67   33   35 1    
    68   35   36 1    
    69   35   37 1    
    70   35   97 1    
    71   36   98 1    
    72   36   99 1    
    73   36  100 1    
    74   37   38 am   BACKBONE|DICT|INTERRES
    75   37  101 1    
    76   38   39 2    
    77   38   40 1    
    78   40   41 1    
    79   40   42 1    
    80   40  102 1    
    81   41  103 1    
    82   41  104 1    
    83   41  105 1    
    84   42   43 am   BACKBONE|DICT|INTERRES
    85   42  106 1    
    86   43   44 2    
    87   43   45 1    
    88   45   46 1    
    89   45   49 1    
    90   45  107 1    
    91   46   47 1    
    92   46  108 1    
    93   46  109 1    
    94   47   48 1    
    95   48  110 1    
    96   48  111 1    
    97   49   50 am   BACKBONE|DICT|INTERRES
    98   49  112 1    
    99   50   51 2    
   100   50   52 1    
   101   52   53 1    
   102   52   54 1    
   103   52  113 1    
   104   53  114 1    
   105   53  115 1    
   106   53  116 1    
   107   54   55 am   BACKBONE|DICT|INTERRES
   108   54  117 1    
   109   55   56 2    
   110   55   57 1    
   111   57   58 1    
   112   57   59 1    
   113   57  118 1    
   114   58  119 1    
   115   58  120 1    
   116   58  121 1    
   117   59   60 am   BACKBONE|DICT|INTERRES
   118   59  122 1    
   119   60   61 2    
   120   60   62 1    
   121   62   63 1    
   122   62   64 1    
   123   62  123 1    
   124   63  124 1    
   125   63  125 1    
   126   63  126 1    
   127   64   65 am   BACKBONE|DICT|INTERRES
   128   64  127 1    
   129   65   66 2    
@<TRIPOS>SUBSTRUCTURE
     1 UNK         1 GROUP             0       ****    0 ROOT    
