@<TRIPOS>MOLECULE
3R135
127   129    1
SMALL
USER_CHARGES


@<TRIPOS>ATOM
      1 CA        -79.6065   28.6364  -79.5415 C.3       0 UNK        -0.1998 
      2 C         -80.1109   28.5691  -78.1077 C.2       0 UNK         0.4909 
      3 O         -81.1990   29.0694  -77.8219 O.2       0 UNK        -0.5240 
      4 N         -79.3298   27.9447  -77.2159 N.am      1 UNK        -0.4739 
      5 CA        -79.5985   27.7597  -75.7813 C.3       1 UNK         0.0864 
      6 C6        -79.7159   29.0876  -74.9796 C.3       11 UNK        -0.0881 
      7 S7        -78.2061   30.1068  -75.0796 S.3       11 UNK        -0.2682 
      8 C8        -78.1406   30.8183  -73.3985 C.3       11 UNK         0.0289 
      9 C9        -77.4985   29.9468  -72.3140 C.ar      11 UNK        -0.0687 
     10 C10       -77.3062   28.5631  -72.4472 C.ar      11 UNK        -0.0823 
     11 C11       -76.7346   27.8192  -71.4091 C.ar      11 UNK        -0.0830 
     12 C12       -76.3527   28.4625  -70.2301 C.ar      11 UNK        -0.1021 
     13 C13       -76.5234   29.8406  -70.0862 C.ar      11 UNK        -0.0753 
     14 C14       -77.1010   30.5716  -71.1269 C.ar      11 UNK        -0.0933 
     15 C15       -76.1034   30.5402  -68.8016 C.3       11 UNK         0.0166 
     16 S16       -74.4490   31.2905  -68.9399 S.3       11 UNK        -0.2615 
     17 C17       -73.3632   29.8200  -68.9297 C.3       11 UNK        -0.0865 
     18 CA        -72.5544   29.6388  -70.2415 C.3       10 UNK         0.0862 
     19 C         -71.6155   28.4020  -70.1342 C.2       10 UNK         0.5551 
     20 N         -71.8545   27.3206  -70.8651 N.am      10 UNK        -0.7319 
     21 O         -70.6516   28.4298  -69.3730 O.2       10 UNK        -0.5018 
     22 N         -73.4124   29.6714  -71.4392 N.am      10 UNK        -0.4509 
     23 C         -72.9631   29.8693  -72.6833 C.2       10 UNK         0.4899 
     24 O         -71.7733   30.0148  -72.9768 O.2       10 UNK        -0.4839 
     25 CA        -74.0250   29.9672  -73.7819 C.3       9 UNK         0.0222 
     26 CB        -74.5919   31.3947  -73.8607 C.3       9 UNK        -0.1966 
     27 N         -73.4074   29.6268  -75.0592 N.am      9 UNK        -0.4218 
     28 C         -73.9662   28.8867  -76.0206 C.2       9 UNK         0.5020 
     29 O         -75.1156   28.4452  -75.9649 O.2       9 UNK        -0.5274 
     30 CA        -73.0694   28.5749  -77.2313 C.3       8 UNK         0.0270 
     31 CB        -71.7876   27.8312  -76.8079 C.3       8 UNK        -0.1976 
     32 N         -73.7909   27.7547  -78.2049 N.am      8 UNK        -0.4313 
     33 C         -74.4968   28.2392  -79.2356 C.2       8 UNK         0.5041 
     34 O         -74.5409   29.4358  -79.5278 O.2       8 UNK        -0.5577 
     35 CA        -75.2669   27.2369  -80.1176 C.3       7 UNK         0.0284 
     36 CB        -74.5778   27.0833  -81.4842 C.3       7 UNK        -0.1958 
     37 N         -75.4128   25.9116  -79.5118 N.am      7 UNK        -0.4454 
     38 C         -76.3140   25.5945  -78.5739 C.2       7 UNK         0.5089 
     39 O         -77.1603   26.3790  -78.1437 O.2       7 UNK        -0.5125 
     40 CA        -76.2732   24.1609  -78.0099 C.3       6 UNK         0.0408 
     41 CB        -75.3679   23.1857  -78.7966 C.3       6 UNK        -0.1791 
     42 N         -75.9201   24.1534  -76.5881 N.am      6 UNK        -0.4762 
     43 C         -74.8094   24.6592  -76.0246 C.2       6 UNK         0.5007 
     44 O         -73.9026   25.1864  -76.6706 O.2       6 UNK        -0.5032 
     45 CA        -74.6765   24.5570  -74.4872 C.3       5 UNK         0.0783 
     46 C46       -74.9369   25.9383  -73.8339 C.3       11 UNK        -0.0857 
     47 S47       -74.8340   25.9020  -72.0138 S.3       11 UNK        -0.2512 
     48 C48       -76.5411   26.3156  -71.5364 C.3       11 UNK         0.0225 
     49 N         -75.5180   23.4955  -73.9189 N.am      5 UNK        -0.4615 
     50 C         -75.2988   22.1826  -74.0728 C.2       4 UNK         0.5053 
     51 O         -74.3114   21.7217  -74.6461 O.2       4 UNK        -0.5105 
     52 CA        -76.3575   21.2102  -73.5119 C.3       4 UNK         0.0263 
     53 CB        -75.8734   20.6126  -72.1804 C.3       4 UNK        -0.1981 
     54 N         -77.7064   21.7654  -73.3218 N.am      4 UNK        -0.4224 
     55 C         -78.4565   22.3594  -74.2607 C.2       3 UNK         0.4895 
     56 O         -78.0634   22.5833  -75.4094 O.2       3 UNK        -0.5091 
     57 CA        -79.8661   22.8054  -73.8430 C.3       3 UNK         0.0250 
     58 CB        -79.8511   23.6784  -72.5700 C.3       3 UNK        -0.1996 
     59 N         -80.4378   23.5634  -74.9494 N.am      3 UNK        -0.4254 
     60 C         -81.7281   23.8287  -75.1735 C.2       2 UNK         0.5004 
     61 O         -82.6511   23.3953  -74.4810 O.2       2 UNK        -0.5226 
     62 CA        -82.0091   24.7664  -76.3674 C.3       2 UNK         0.0269 
     63 CB        -83.4542   25.3096  -76.3838 C.3       2 UNK        -0.1926 
     64 N         -81.0322   25.8665  -76.4512 N.am      2 UNK        -0.4687 
     65 C         -80.7805   26.7983  -75.5139 C.2       1 UNK         0.5165 
     66 O         -81.4133   26.8908  -74.4606 O.2       1 UNK        -0.5079 
     67 H67       -79.4974   29.6751  -79.8518 H         1 UNK         0.0900 
     68 H68       -80.3148   28.1513  -80.2126 H         1 UNK         0.0900 
     69 H69       -78.6404   28.1459  -79.6561 H         1 UNK         0.0900 
     70 H70       -78.4603   27.5201  -77.5393 H         1 UNK         0.2959 
     71 H71       -78.7245   27.2313  -75.3974 H         1 UNK         0.1079 
     72 H72       -79.9113   28.8786  -73.9263 H         1 UNK         0.0837 
     73 H73       -80.5628   29.6809  -75.3267 H         1 UNK         0.0837 
     74 H74       -77.5876   31.7558  -73.4681 H         1 UNK         0.0685 
     75 H75       -79.1497   31.0888  -73.0846 H         1 UNK         0.0685 
     76 H76       -77.5972   28.0563  -73.3544 H         1 UNK         0.1434 
     77 H77       -75.9214   27.8844  -69.4244 H         1 UNK         0.1329 
     78 H78       -77.2417   31.6378  -71.0096 H         1 UNK         0.1335 
     79 H79       -76.8233   31.3246  -68.5630 H         1 UNK         0.0680 
     80 H80       -76.1236   29.8471  -67.9590 H         1 UNK         0.0680 
     81 H81       -73.9475   28.9250  -68.7147 H         1 UNK         0.1032 
     82 H82       -72.6801   29.9296  -68.0850 H         1 UNK         0.1032 
     83 H83       -71.8908   30.5025  -70.3198 H         1 UNK         0.0461 
     84 H84       -72.6628   27.2774  -71.4660 H         1 UNK         0.3453 
     85 H85       -71.2389   26.5269  -70.7883 H         1 UNK         0.3453 
     86 H86       -74.4061   29.5771  -71.2763 H         1 UNK         0.2984 
     87 H87       -74.8252   29.2624  -73.5501 H         1 UNK         0.0554 
     88 H88       -75.3605   31.4697  -74.6297 H         1 UNK         0.0847 
     89 H89       -75.0451   31.6913  -72.9144 H         1 UNK         0.0847 
     90 H90       -73.8156   32.1250  -74.0920 H         1 UNK         0.0847 
     91 H91       -72.4335   29.8923  -75.1338 H         1 UNK         0.3141 
     92 H92       -72.7803   29.5230  -77.6896 H         1 UNK         0.0743 
     93 H93       -71.1413   28.4653  -76.2003 H         1 UNK         0.0784 
     94 H94       -72.0091   26.9394  -76.2211 H         1 UNK         0.0784 
     95 H95       -71.2041   27.5225  -77.6755 H         1 UNK         0.0784 
     96 H96       -73.8888   26.7743  -77.9598 H         1 UNK         0.3213 
     97 H97       -76.2618   27.6544  -80.2855 H         1 UNK         0.0855 
     98 H98       -74.4862   28.0479  -81.9858 H         1 UNK         0.0814 
     99 H99       -75.1475   26.4304  -82.1458 H         1 UNK         0.0814 
    100 H100      -73.5727   26.6713  -81.3864 H         1 UNK         0.0814 
    101 H101      -74.7466   25.2068  -79.7931 H         1 UNK         0.3105 
    102 H102      -77.2942   23.7817  -78.0726 H         1 UNK         0.0547 
    103 H103      -75.6584   23.1355  -79.8468 H         1 UNK         0.0837 
    104 H104      -74.3146   23.4641  -78.7520 H         1 UNK         0.0837 
    105 H105      -75.4525   22.1748  -78.3974 H         1 UNK         0.0837 
    106 H106      -76.6081   23.7113  -75.9843 H         1 UNK         0.3020 
    107 H107      -73.6366   24.2881  -74.2868 H         1 UNK         0.1245 
    108 H108      -74.1871   26.6518  -74.1764 H         1 UNK         0.0781 
    109 H109      -75.9011   26.3435  -74.1464 H         1 UNK         0.0781 
    110 H110      -76.7590   25.8404  -70.5786 H         1 UNK         0.0836 
    111 H111      -77.2494   25.8905  -72.2478 H         1 UNK         0.0836 
    112 H112      -76.3347   23.7912  -73.4080 H         1 UNK         0.3022 
    113 H113      -76.4487   20.3977  -74.2357 H         1 UNK         0.0747 
    114 H114      -76.5459   19.8312  -71.8258 H         1 UNK         0.0793 
    115 H115      -74.8865   20.1601  -72.2894 H         1 UNK         0.0793 
    116 H116      -75.7983   21.3728  -71.4016 H         1 UNK         0.0793 
    117 H117      -78.1103   21.6329  -72.4056 H         1 UNK         0.3047 
    118 H118      -80.4673   21.9100  -73.6731 H         1 UNK         0.0822 
    119 H119      -80.8567   24.0045  -72.3031 H         1 UNK         0.0807 
    120 H120      -79.2432   24.5731  -72.7047 H         1 UNK         0.0807 
    121 H121      -79.4592   23.1362  -71.7091 H         1 UNK         0.0807 
    122 H122      -79.7481   23.8824  -75.6183 H         1 UNK         0.2946 
    123 H123      -81.8766   24.1595  -77.2647 H         1 UNK         0.1144 
    124 H124      -83.6224   25.9621  -77.2405 H         1 UNK         0.0793 
    125 H125      -83.6866   25.8751  -75.4810 H         1 UNK         0.0793 
    126 H126      -84.1764   24.4950  -76.4504 H         1 UNK         0.0793 
    127 H127      -80.4581   25.8862  -77.2832 H         1 UNK         0.2896 
@<TRIPOS>BOND
     1    1    2 1    
     2    1   67 1    
     3    1   68 1    
     4    1   69 1    
     5    2    3 2    
     6    2    4 am   BACKBONE|DICT|INTERRES
     7    4    5 1    
     8    4   70 1    
     9    5    6 1    
    10    5   65 1    
    11    5   71 1    
    12    6    7 1    
    13    6   72 1    
    14    6   73 1    
    15    7    8 1    
    16    8    9 1    
    17    8   74 1    
    18    8   75 1    
    19    9   10 ar   
    20    9   14 ar   
    21   10   11 ar   
    22   10   76 1    
    23   11   12 ar   
    24   11   48 1    
    25   12   13 ar   
    26   12   77 1    
    27   13   14 ar   
    28   13   15 1    
    29   14   78 1    
    30   15   16 1    
    31   15   79 1    
    32   15   80 1    
    33   16   17 1    
    34   17   18 1    
    35   17   81 1    
    36   17   82 1    
    37   18   19 1    
    38   18   22 1    
    39   18   83 1    
    40   19   20 am   BACKBONE|DICT|INTERRES
    41   19   21 2    
    42   20   84 1    
    43   20   85 1    
    44   22   23 am   BACKBONE|DICT|INTERRES
    45   22   86 1    
    46   23   24 2    
    47   23   25 1    
    48   25   26 1    
    49   25   27 1    
    50   25   87 1    
    51   26   88 1    
    52   26   89 1    
    53   26   90 1    
    54   27   28 am   BACKBONE|DICT|INTERRES
    55   27   91 1    
    56   28   29 2    
    57   28   30 1    
    58   30   31 1    
    59   30   32 1    
    60   30   92 1    
    61   31   93 1    
    62   31   94 1    
    63   31   95 1    
    64   32   33 am   BACKBONE|DICT|INTERRES
    65   32   96 1    
    66   33   34 2    
    67   33   35 1    
    68   35   36 1    
    69   35   37 1    
    70   35   97 1    
    71   36   98 1    
    72   36   99 1    
    73   36  100 1    
    74   37   38 am   BACKBONE|DICT|INTERRES
    75   37  101 1    
    76   38   39 2    
    77   38   40 1    
    78   40   41 1    
    79   40   42 1    
    80   40  102 1    
    81   41  103 1    
    82   41  104 1    
    83   41  105 1    
    84   42   43 am   BACKBONE|DICT|INTERRES
    85   42  106 1    
    86   43   44 2    
    87   43   45 1    
    88   45   46 1    
    89   45   49 1    
    90   45  107 1    
    91   46   47 1    
    92   46  108 1    
    93   46  109 1    
    94   47   48 1    
    95   48  110 1    
    96   48  111 1    
    97   49   50 am   BACKBONE|DICT|INTERRES
    98   49  112 1    
    99   50   51 2    
   100   50   52 1    
   101   52   53 1    
   102   52   54 1    
   103   52  113 1    
   104   53  114 1    
   105   53  115 1    
   106   53  116 1    
   107   54   55 am   BACKBONE|DICT|INTERRES
   108   54  117 1    
   109   55   56 2    
   110   55   57 1    
   111   57   58 1    
   112   57   59 1    
   113   57  118 1    
   114   58  119 1    
   115   58  120 1    
   116   58  121 1    
   117   59   60 am   BACKBONE|DICT|INTERRES
   118   59  122 1    
   119   60   61 2    
   120   60   62 1    
   121   62   63 1    
   122   62   64 1    
   123   62  123 1    
   124   63  124 1    
   125   63  125 1    
   126   63  126 1    
   127   64   65 am   BACKBONE|DICT|INTERRES
   128   64  127 1    
   129   65   66 2    
@<TRIPOS>SUBSTRUCTURE
     1 UNK         1 GROUP             0       ****    0 ROOT    
