@<TRIPOS>MOLECULE
3R135
127   129    1
SMALL
USER_CHARGES


@<TRIPOS>ATOM
      1 CA        -86.1727   28.5577  -72.8884 C.3       0 UNK        -0.1998 
      2 C         -84.8975   28.1451  -73.6084 C.2       0 UNK         0.4909 
      3 O         -84.9659   27.5863  -74.7042 O.2       0 UNK        -0.5240 
      4 N         -83.7354   28.4248  -73.0065 N.am      1 UNK        -0.4739 
      5 CA        -82.4148   28.0349  -73.5104 C.3       1 UNK         0.0864 
      6 C6        -81.2936   28.9398  -72.9356 C.3       11 UNK        -0.0881 
      7 S7        -81.2044   28.9816  -71.1092 S.3       11 UNK        -0.2682 
      8 C8        -80.3007   30.5384  -70.8297 C.3       11 UNK         0.0289 
      9 C9        -78.8501   30.4362  -71.2786 C.ar      11 UNK        -0.0687 
     10 C10       -78.4902   30.7958  -72.5816 C.ar      11 UNK        -0.0823 
     11 C11       -77.1669   30.6669  -73.0131 C.ar      11 UNK        -0.0830 
     12 C12       -76.1936   30.2315  -72.1134 C.ar      11 UNK        -0.1021 
     13 C13       -76.5369   29.8688  -70.8098 C.ar      11 UNK        -0.0753 
     14 C14       -77.8686   29.9713  -70.3961 C.ar      11 UNK        -0.0933 
     15 C15       -75.4611   29.3673  -69.8577 C.3       11 UNK         0.0166 
     16 S16       -75.3701   27.5469  -69.7989 S.3       11 UNK        -0.2615 
     17 C17       -74.8809   27.1093  -71.5038 C.3       11 UNK        -0.0865 
     18 CA        -73.3642   27.3103  -71.7881 C.3       10 UNK         0.0862 
     19 C         -72.5212   26.0475  -71.4616 C.2       10 UNK         0.5551 
     20 N         -72.5090   25.6235  -70.2061 N.am      10 UNK        -0.7319 
     21 O         -71.8915   25.4403  -72.3249 O.2       10 UNK        -0.5018 
     22 N         -73.1485   27.7590  -73.1703 N.am      10 UNK        -0.4509 
     23 C         -72.7638   28.9850  -73.5454 C.2       10 UNK         0.4899 
     24 O         -72.5784   29.9138  -72.7580 O.2       10 UNK        -0.4839 
     25 CA        -72.5912   29.2280  -75.0604 C.3       9 UNK         0.0222 
     26 CB        -71.6830   30.4362  -75.3763 C.3       9 UNK        -0.1966 
     27 N         -72.1669   28.0337  -75.8071 N.am      9 UNK        -0.4218 
     28 C         -71.0196   27.3572  -75.6387 C.2       9 UNK         0.5020 
     29 O         -70.1370   27.7062  -74.8526 O.2       9 UNK        -0.5274 
     30 CA        -70.7947   26.0870  -76.4764 C.3       8 UNK         0.0270 
     31 CB        -70.2182   24.9390  -75.6231 C.3       8 UNK        -0.1976 
     32 N         -71.9941   25.6012  -77.1711 N.am      8 UNK        -0.4313 
     33 C         -71.9553   25.0361  -78.3873 C.2       8 UNK         0.5041 
     34 O         -70.9599   25.0448  -79.1139 O.2       8 UNK        -0.5577 
     35 CA        -73.2049   24.2820  -78.8678 C.3       7 UNK         0.0284 
     36 CB        -73.3063   22.9141  -78.1735 C.3       7 UNK        -0.1958 
     37 N         -74.4538   25.0206  -78.6903 N.am      7 UNK        -0.4454 
     38 C         -74.8310   26.0577  -79.4499 C.2       7 UNK         0.5089 
     39 O         -74.1382   26.5446  -80.3441 O.2       7 UNK        -0.5125 
     40 CA        -76.2256   26.6471  -79.1719 C.3       6 UNK         0.0408 
     41 CB        -77.3196   25.8119  -79.8562 C.3       6 UNK        -0.1791 
     42 N         -76.5173   26.7629  -77.7422 N.am      6 UNK        -0.4762 
     43 C         -75.8774   27.6015  -76.9152 C.2       6 UNK         0.5007 
     44 O         -74.9875   28.3711  -77.2769 O.2       6 UNK        -0.5032 
     45 CA        -76.2470   27.5166  -75.4208 C.3       5 UNK         0.0783 
     46 C46       -77.5627   28.2581  -75.0640 C.3       11 UNK        -0.0857 
     47 S47       -77.7207   29.9802  -75.6681 S.3       11 UNK        -0.2512 
     48 C48       -76.7806   30.9670  -74.4543 C.3       11 UNK         0.0225 
     49 N         -76.2774   26.1143  -74.9846 N.am      5 UNK        -0.4615 
     50 C         -75.1959   25.3216  -74.9136 C.2       4 UNK         0.5053 
     51 O         -74.0511   25.7214  -75.1265 O.2       4 UNK        -0.5105 
     52 CA        -75.4103   23.8323  -74.5842 C.3       4 UNK         0.0263 
     53 CB        -75.2514   23.5726  -73.0796 C.3       4 UNK        -0.1981 
     54 N         -76.7023   23.3068  -75.0256 N.am      4 UNK        -0.4224 
     55 C         -77.1015   23.2107  -76.3016 C.2       3 UNK         0.4895 
     56 O         -76.4005   23.5247  -77.2618 O.2       3 UNK        -0.5091 
     57 CA        -78.5480   22.7405  -76.5413 C.3       3 UNK         0.0250 
     58 CB        -78.5939   21.2156  -76.7248 C.3       3 UNK        -0.1996 
     59 N         -79.4762   23.1390  -75.4736 N.am      3 UNK        -0.4254 
     60 C         -79.7253   24.4107  -75.1324 C.2       2 UNK         0.5004 
     61 O         -79.2099   25.3803  -75.6960 O.2       2 UNK        -0.5226 
     62 CA        -80.6351   24.6414  -73.9224 C.3       2 UNK         0.0269 
     63 CB        -79.8572   24.3971  -72.6130 C.3       2 UNK        -0.1926 
     64 N         -81.1083   26.0215  -73.9746 N.am      2 UNK        -0.4687 
     65 C         -82.1298   26.5333  -73.2811 C.2       1 UNK         0.5165 
     66 O         -82.8113   25.8765  -72.4880 O.2       1 UNK        -0.5079 
     67 H67       -86.7877   27.6818  -72.6840 H         1 UNK         0.0900 
     68 H68       -86.7497   29.2429  -73.5089 H         1 UNK         0.0900 
     69 H69       -85.9631   29.0534  -71.9405 H         1 UNK         0.0900 
     70 H70       -83.7335   28.8503  -72.0900 H         1 UNK         0.2959 
     71 H71       -82.4234   28.1823  -74.5931 H         1 UNK         0.1079 
     72 H72       -80.3179   28.6424  -73.3244 H         1 UNK         0.0837 
     73 H73       -81.4518   29.9580  -73.2940 H         1 UNK         0.0837 
     74 H74       -80.8055   31.3560  -71.3468 H         1 UNK         0.0685 
     75 H75       -80.3410   30.7817  -69.7669 H         1 UNK         0.0685 
     76 H76       -79.2447   31.1436  -73.2736 H         1 UNK         0.1434 
     77 H77       -75.1656   30.1483  -72.4329 H         1 UNK         0.1329 
     78 H78       -78.1417   29.6829  -69.3901 H         1 UNK         0.1335 
     79 H79       -74.4864   29.7695  -70.1389 H         1 UNK         0.0680 
     80 H80       -75.6624   29.7401  -68.8524 H         1 UNK         0.0680 
     81 H81       -75.4916   27.6845  -72.1974 H         1 UNK         0.1032 
     82 H82       -75.1783   26.0768  -71.6824 H         1 UNK         0.1032 
     83 H83       -72.9812   28.0840  -71.1208 H         1 UNK         0.0461 
     84 H84       -71.9720   24.8047  -69.9677 H         1 UNK         0.3453 
     85 H85       -73.0434   26.1019  -69.4968 H         1 UNK         0.3453 
     86 H86       -73.2158   27.0287  -73.8735 H         1 UNK         0.2984 
     87 H87       -73.5842   29.4819  -75.4278 H         1 UNK         0.0554 
     88 H88       -71.5914   30.5934  -76.4509 H         1 UNK         0.0847 
     89 H89       -70.6800   30.3099  -74.9679 H         1 UNK         0.0847 
     90 H90       -72.0910   31.3541  -74.9512 H         1 UNK         0.0847 
     91 H91       -72.8333   27.6898  -76.4866 H         1 UNK         0.3141 
     92 H92       -70.0379   26.3717  -77.2102 H         1 UNK         0.0743 
     93 H93       -70.9234   24.6253  -74.8521 H         1 UNK         0.0784 
     94 H94       -69.9806   24.0684  -76.2345 H         1 UNK         0.0784 
     95 H95       -69.2968   25.2374  -75.1214 H         1 UNK         0.0784 
     96 H96       -72.8423   25.5445  -76.6114 H         1 UNK         0.3213 
     97 H97       -73.0809   24.0961  -79.9373 H         1 UNK         0.0855 
     98 H98       -73.4402   23.0154  -77.0971 H         1 UNK         0.0814 
     99 H99       -72.4013   22.3268  -78.3348 H         1 UNK         0.0814 
    100 H100      -74.1429   22.3327  -78.5617 H         1 UNK         0.0814 
    101 H101      -75.1284   24.6319  -78.0342 H         1 UNK         0.3105 
    102 H102      -76.2529   27.6512  -79.6009 H         1 UNK         0.0547 
    103 H103      -77.1371   25.7369  -80.9290 H         1 UNK         0.0837 
    104 H104      -77.3629   24.7958  -79.4627 H         1 UNK         0.0837 
    105 H105      -78.3031   26.2636  -79.7268 H         1 UNK         0.0837 
    106 H106      -77.2147   26.1384  -77.3596 H         1 UNK         0.3020 
    107 H107      -75.4461   28.0117  -74.8711 H         1 UNK         0.1245 
    108 H108      -77.7225   28.2309  -73.9856 H         1 UNK         0.0781 
    109 H109      -78.4102   27.7253  -75.4913 H         1 UNK         0.0781 
    110 H110      -76.9485   32.0260  -74.6541 H         1 UNK         0.0836 
    111 H111      -75.7161   30.7911  -74.6170 H         1 UNK         0.0836 
    112 H112      -77.1951   25.7047  -74.8646 H         1 UNK         0.3022 
    113 H113      -74.6308   23.2725  -75.1031 H         1 UNK         0.0747 
    114 H114      -75.2775   22.5052  -72.8594 H         1 UNK         0.0793 
    115 H115      -74.2938   23.9475  -72.7172 H         1 UNK         0.0793 
    116 H116      -76.0407   24.0511  -72.4992 H         1 UNK         0.0793 
    117 H117      -77.3456   23.0157  -74.3047 H         1 UNK         0.3047 
    118 H118      -78.8893   23.2077  -77.4678 H         1 UNK         0.0822 
    119 H119      -79.5959   20.8774  -76.9896 H         1 UNK         0.0807 
    120 H120      -78.2885   20.6886  -75.8200 H         1 UNK         0.0807 
    121 H121      -77.9255   20.8997  -77.5272 H         1 UNK         0.0807 
    122 H122      -79.9303   22.3940  -74.9640 H         1 UNK         0.2946 
    123 H123      -81.4901   23.9645  -73.9871 H         1 UNK         0.1144 
    124 H124      -80.4898   24.5464  -71.7379 H         1 UNK         0.0793 
    125 H125      -79.0023   25.0686  -72.5215 H         1 UNK         0.0793 
    126 H126      -79.4798   23.3753  -72.5602 H         1 UNK         0.0793 
    127 H127      -80.6030   26.5924  -74.6419 H         1 UNK         0.2896 
@<TRIPOS>BOND
     1    1    2 1    
     2    1   67 1    
     3    1   68 1    
     4    1   69 1    
     5    2    3 2    
     6    2    4 am   BACKBONE|DICT|INTERRES
     7    4    5 1    
     8    4   70 1    
     9    5    6 1    
    10    5   65 1    
    11    5   71 1    
    12    6    7 1    
    13    6   72 1    
    14    6   73 1    
    15    7    8 1    
    16    8    9 1    
    17    8   74 1    
    18    8   75 1    
    19    9   10 ar   
    20    9   14 ar   
    21   10   11 ar   
    22   10   76 1    
    23   11   12 ar   
    24   11   48 1    
    25   12   13 ar   
    26   12   77 1    
    27   13   14 ar   
    28   13   15 1    
    29   14   78 1    
    30   15   16 1    
    31   15   79 1    
    32   15   80 1    
    33   16   17 1    
    34   17   18 1    
    35   17   81 1    
    36   17   82 1    
    37   18   19 1    
    38   18   22 1    
    39   18   83 1    
    40   19   20 am   BACKBONE|DICT|INTERRES
    41   19   21 2    
    42   20   84 1    
    43   20   85 1    
    44   22   23 am   BACKBONE|DICT|INTERRES
    45   22   86 1    
    46   23   24 2    
    47   23   25 1    
    48   25   26 1    
    49   25   27 1    
    50   25   87 1    
    51   26   88 1    
    52   26   89 1    
    53   26   90 1    
    54   27   28 am   BACKBONE|DICT|INTERRES
    55   27   91 1    
    56   28   29 2    
    57   28   30 1    
    58   30   31 1    
    59   30   32 1    
    60   30   92 1    
    61   31   93 1    
    62   31   94 1    
    63   31   95 1    
    64   32   33 am   BACKBONE|DICT|INTERRES
    65   32   96 1    
    66   33   34 2    
    67   33   35 1    
    68   35   36 1    
    69   35   37 1    
    70   35   97 1    
    71   36   98 1    
    72   36   99 1    
    73   36  100 1    
    74   37   38 am   BACKBONE|DICT|INTERRES
    75   37  101 1    
    76   38   39 2    
    77   38   40 1    
    78   40   41 1    
    79   40   42 1    
    80   40  102 1    
    81   41  103 1    
    82   41  104 1    
    83   41  105 1    
    84   42   43 am   BACKBONE|DICT|INTERRES
    85   42  106 1    
    86   43   44 2    
    87   43   45 1    
    88   45   46 1    
    89   45   49 1    
    90   45  107 1    
    91   46   47 1    
    92   46  108 1    
    93   46  109 1    
    94   47   48 1    
    95   48  110 1    
    96   48  111 1    
    97   49   50 am   BACKBONE|DICT|INTERRES
    98   49  112 1    
    99   50   51 2    
   100   50   52 1    
   101   52   53 1    
   102   52   54 1    
   103   52  113 1    
   104   53  114 1    
   105   53  115 1    
   106   53  116 1    
   107   54   55 am   BACKBONE|DICT|INTERRES
   108   54  117 1    
   109   55   56 2    
   110   55   57 1    
   111   57   58 1    
   112   57   59 1    
   113   57  118 1    
   114   58  119 1    
   115   58  120 1    
   116   58  121 1    
   117   59   60 am   BACKBONE|DICT|INTERRES
   118   59  122 1    
   119   60   61 2    
   120   60   62 1    
   121   62   63 1    
   122   62   64 1    
   123   62  123 1    
   124   63  124 1    
   125   63  125 1    
   126   63  126 1    
   127   64   65 am   BACKBONE|DICT|INTERRES
   128   64  127 1    
   129   65   66 2    
@<TRIPOS>SUBSTRUCTURE
     1 UNK         1 GROUP             0       ****    0 ROOT    
