@<TRIPOS>MOLECULE
3R135
127   129    1
SMALL
USER_CHARGES


@<TRIPOS>ATOM
      1 CA        -77.9716   26.6712  -73.8221 C.3       0 UNK        -0.1998 
      2 C         -78.3116   26.0576  -72.4779 C.2       0 UNK         0.4909 
      3 O         -77.6856   25.0818  -72.0624 O.2       0 UNK        -0.5240 
      4 N         -79.3285   26.6064  -71.8057 N.am      1 UNK        -0.4739 
      5 CA        -79.8876   26.1367  -70.5342 C.3       1 UNK         0.0864 
      6 C6        -80.6345   27.2806  -69.7953 C.3       11 UNK        -0.0881 
      7 S7        -81.8933   28.1451  -70.8075 S.3       11 UNK        -0.2682 
      8 C8        -81.2255   29.8350  -70.8973 C.3       11 UNK         0.0289 
      9 C9        -80.0809   29.9603  -71.8936 C.ar      11 UNK        -0.0687 
     10 C10       -80.3513   30.0471  -73.2623 C.ar      11 UNK        -0.0823 
     11 C11       -79.3174   30.2498  -74.1823 C.ar      11 UNK        -0.0830 
     12 C12       -77.9997   30.3519  -73.7241 C.ar      11 UNK        -0.1021 
     13 C13       -77.7162   30.2580  -72.3572 C.ar      11 UNK        -0.0753 
     14 C14       -78.7593   30.0547  -71.4481 C.ar      11 UNK        -0.0933 
     15 C15       -76.2927   30.4370  -71.8527 C.3       11 UNK         0.0166 
     16 S16       -75.3351   28.8959  -71.9555 S.3       11 UNK        -0.2615 
     17 C17       -73.8266   29.3919  -71.0528 C.3       11 UNK        -0.0865 
     18 CA        -72.8139   30.1766  -71.9285 C.3       10 UNK         0.0862 
     19 C         -71.6217   30.6970  -71.0734 C.2       10 UNK         0.5551 
     20 N         -70.3854   30.2886  -71.3332 N.am      10 UNK        -0.7319 
     21 O         -71.8247   31.4934  -70.1603 O.2       10 UNK        -0.5018 
     22 N         -72.4190   29.4071  -73.1170 N.am      10 UNK        -0.4509 
     23 C         -71.9626   29.9211  -74.2631 C.2       10 UNK         0.4899 
     24 O         -71.8243   31.1289  -74.4592 O.2       10 UNK        -0.4839 
     25 CA        -71.6114   28.9404  -75.3988 C.3       9 UNK         0.0222 
     26 CB        -70.0924   28.6894  -75.4661 C.3       9 UNK        -0.1966 
     27 N         -72.3632   27.6759  -75.3948 N.am      9 UNK        -0.4218 
     28 C         -72.3133   26.6593  -74.5197 C.2       9 UNK         0.5020 
     29 O         -71.6223   26.6619  -73.5004 O.2       9 UNK        -0.5274 
     30 CA        -73.2089   25.4439  -74.8115 C.3       8 UNK         0.0270 
     31 CB        -74.6064   25.6597  -74.2122 C.3       8 UNK        -0.1976 
     32 N         -73.3362   25.1480  -76.2400 N.am      8 UNK        -0.4313 
     33 C         -72.3368   24.7340  -77.0327 C.2       8 UNK         0.5041 
     34 O         -71.1900   24.5160  -76.6401 O.2       8 UNK        -0.5577 
     35 CA        -72.6730   24.5399  -78.5181 C.3       7 UNK         0.0284 
     36 CB        -73.3475   23.1777  -78.7503 C.3       7 UNK        -0.1958 
     37 N         -73.5397   25.6141  -79.0066 N.am      7 UNK        -0.4454 
     38 C         -73.0935   26.7951  -79.4569 C.2       7 UNK         0.5089 
     39 O         -71.9008   27.0772  -79.5735 O.2       7 UNK        -0.5125 
     40 CA        -74.1499   27.8466  -79.8465 C.3       6 UNK         0.0408 
     41 CB        -74.4590   27.7612  -81.3495 C.3       6 UNK        -0.1791 
     42 N         -75.4006   27.7400  -79.0895 N.am      6 UNK        -0.4762 
     43 C         -75.5227   27.9947  -77.7784 C.2       6 UNK         0.5007 
     44 O         -74.5877   28.3506  -77.0623 O.2       6 UNK        -0.5032 
     45 CA        -76.9137   27.7652  -77.1516 C.3       5 UNK         0.0783 
     46 C46       -77.7789   29.0404  -77.3002 C.3       11 UNK        -0.0857 
     47 S47       -79.4515   28.8632  -76.5876 S.3       11 UNK        -0.2512 
     48 C48       -79.6422   30.4175  -75.6599 C.3       11 UNK         0.0225 
     49 N         -77.5982   26.5657  -77.6605 N.am      5 UNK        -0.4615 
     50 C         -77.0938   25.3257  -77.7036 C.2       4 UNK         0.5053 
     51 O         -75.9484   25.0421  -77.3484 O.2       4 UNK        -0.5105 
     52 CA        -78.0287   24.2371  -78.2590 C.3       4 UNK         0.0263 
     53 CB        -77.2778   22.9333  -78.6046 C.3       4 UNK        -0.1981 
     54 N         -79.1700   23.9564  -77.3775 N.am      4 UNK        -0.4224 
     55 C         -79.1327   23.5167  -76.1102 C.2       3 UNK         0.4895 
     56 O         -78.1010   23.3511  -75.4544 O.2       3 UNK        -0.5091 
     57 CA        -80.4871   23.1515  -75.4852 C.3       3 UNK         0.0250 
     58 CB        -81.0423   21.8646  -76.1355 C.3       3 UNK        -0.1996 
     59 N         -80.2939   22.9634  -74.0483 N.am      3 UNK        -0.4254 
     60 C         -81.2389   22.7357  -73.1275 C.2       2 UNK         0.5004 
     61 O         -82.4450   22.6826  -73.3699 O.2       2 UNK        -0.5226 
     62 CA        -80.7478   22.5652  -71.6826 C.3       2 UNK         0.0269 
     63 CB        -79.7766   21.3790  -71.5445 C.3       2 UNK        -0.1926 
     64 N         -80.0957   23.7932  -71.2332 N.am      2 UNK        -0.4687 
     65 C         -80.7353   24.8548  -70.7274 C.2       1 UNK         0.5165 
     66 O         -81.9341   24.8432  -70.4412 O.2       1 UNK        -0.5079 
     67 H67       -78.8349   27.1740  -74.2555 H         1 UNK         0.0900 
     68 H68       -77.6441   25.9005  -74.5187 H         1 UNK         0.0900 
     69 H69       -77.1726   27.4007  -73.7067 H         1 UNK         0.0900 
     70 H70       -79.8039   27.4089  -72.1968 H         1 UNK         0.2959 
     71 H71       -79.0529   25.8432  -69.8932 H         1 UNK         0.1079 
     72 H72       -81.1164   26.9040  -68.8911 H         1 UNK         0.0837 
     73 H73       -79.9027   28.0083  -69.4425 H         1 UNK         0.0837 
     74 H74       -80.9164   30.1622  -69.9032 H         1 UNK         0.0685 
     75 H75       -82.0306   30.5084  -71.1951 H         1 UNK         0.0685 
     76 H76       -81.3747   29.9846  -73.6075 H         1 UNK         0.1434 
     77 H77       -77.1957   30.5234  -74.4264 H         1 UNK         0.1329 
     78 H78       -78.5441   29.9999  -70.3897 H         1 UNK         0.1335 
     79 H79       -75.7912   31.2118  -72.4346 H         1 UNK         0.0680 
     80 H80       -76.3058   30.7891  -70.8200 H         1 UNK         0.0680 
     81 H81       -73.3582   28.4880  -70.6590 H         1 UNK         0.1032 
     82 H82       -74.1200   29.9774  -70.1792 H         1 UNK         0.1032 
     83 H83       -73.3246   31.0737  -72.2828 H         1 UNK         0.0461 
     84 H84       -69.6207   30.6352  -70.7757 H         1 UNK         0.3453 
     85 H85       -70.2138   29.6331  -72.0786 H         1 UNK         0.3453 
     86 H86       -72.4263   28.3973  -73.0268 H         1 UNK         0.2984 
     87 H87       -71.9002   29.4365  -76.3268 H         1 UNK         0.0554 
     88 H88       -69.8339   28.0572  -76.3158 H         1 UNK         0.0847 
     89 H89       -69.7163   28.2076  -74.5634 H         1 UNK         0.0847 
     90 H90       -69.5479   29.6274  -75.5825 H         1 UNK         0.0847 
     91 H91       -73.0661   27.6192  -76.1276 H         1 UNK         0.3141 
     92 H92       -72.7579   24.5740  -74.3298 H         1 UNK         0.0743 
     93 H93       -75.0939   26.5300  -74.6503 H         1 UNK         0.0784 
     94 H94       -75.2513   24.7954  -74.3756 H         1 UNK         0.0784 
     95 H95       -74.5523   25.8255  -73.1352 H         1 UNK         0.0784 
     96 H96       -74.2694   25.2244  -76.6419 H         1 UNK         0.3213 
     97 H97       -71.7365   24.5496  -79.0805 H         1 UNK         0.0855 
     98 H98       -74.2650   23.0730  -78.1711 H         1 UNK         0.0814 
     99 H99       -72.6849   22.3633  -78.4547 H         1 UNK         0.0814 
    100 H100      -73.5939   23.0296  -79.8018 H         1 UNK         0.0814 
    101 H101      -74.5356   25.4887  -78.8750 H         1 UNK         0.3105 
    102 H102      -73.7208   28.8305  -79.6445 H         1 UNK         0.0547 
    103 H103      -73.5483   27.8664  -81.9411 H         1 UNK         0.0837 
    104 H104      -74.9112   26.8053  -81.6167 H         1 UNK         0.0837 
    105 H105      -75.1379   28.5547  -81.6620 H         1 UNK         0.0837 
    106 H106      -76.2206   27.4423  -79.5987 H         1 UNK         0.3020 
    107 H107      -76.7402   27.6022  -76.0888 H         1 UNK         0.1245 
    108 H108      -77.8971   29.3047  -78.3530 H         1 UNK         0.0781 
    109 H109      -77.2725   29.8863  -76.8319 H         1 UNK         0.0781 
    110 H110      -80.6730   30.7565  -75.7742 H         1 UNK         0.0836 
    111 H111      -79.0276   31.2058  -76.0968 H         1 UNK         0.0836 
    112 H112      -78.5549   26.7080  -77.9517 H         1 UNK         0.3022 
    113 H113      -78.4431   24.6263  -79.1904 H         1 UNK         0.0747 
    114 H114      -77.9493   22.1918  -79.0372 H         1 UNK         0.0793 
    115 H115      -76.4897   23.1203  -79.3348 H         1 UNK         0.0793 
    116 H116      -76.8093   22.4874  -77.7264 H         1 UNK         0.0793 
    117 H117      -80.0787   24.0709  -77.8056 H         1 UNK         0.3047 
    118 H118      -81.1808   23.9804  -75.6398 H         1 UNK         0.0822 
    119 H119      -81.1456   21.9752  -77.2155 H         1 UNK         0.0807 
    120 H120      -82.0301   21.6090  -75.7529 H         1 UNK         0.0807 
    121 H121      -80.3855   21.0121  -75.9578 H         1 UNK         0.0807 
    122 H122      -79.3209   23.0161  -73.7687 H         1 UNK         0.2946 
    123 H123      -81.6189   22.3611  -71.0551 H         1 UNK         0.1144 
    124 H124      -79.5121   21.2090  -70.5007 H         1 UNK         0.0793 
    125 H125      -78.8507   21.5357  -72.0991 H         1 UNK         0.0793 
    126 H126      -80.2299   20.4591  -71.9165 H         1 UNK         0.0793 
    127 H127      -79.1180   23.9223  -71.4810 H         1 UNK         0.2896 
@<TRIPOS>BOND
     1    1    2 1    
     2    1   67 1    
     3    1   68 1    
     4    1   69 1    
     5    2    3 2    
     6    2    4 am   BACKBONE|DICT|INTERRES
     7    4    5 1    
     8    4   70 1    
     9    5    6 1    
    10    5   65 1    
    11    5   71 1    
    12    6    7 1    
    13    6   72 1    
    14    6   73 1    
    15    7    8 1    
    16    8    9 1    
    17    8   74 1    
    18    8   75 1    
    19    9   10 ar   
    20    9   14 ar   
    21   10   11 ar   
    22   10   76 1    
    23   11   12 ar   
    24   11   48 1    
    25   12   13 ar   
    26   12   77 1    
    27   13   14 ar   
    28   13   15 1    
    29   14   78 1    
    30   15   16 1    
    31   15   79 1    
    32   15   80 1    
    33   16   17 1    
    34   17   18 1    
    35   17   81 1    
    36   17   82 1    
    37   18   19 1    
    38   18   22 1    
    39   18   83 1    
    40   19   20 am   BACKBONE|DICT|INTERRES
    41   19   21 2    
    42   20   84 1    
    43   20   85 1    
    44   22   23 am   BACKBONE|DICT|INTERRES
    45   22   86 1    
    46   23   24 2    
    47   23   25 1    
    48   25   26 1    
    49   25   27 1    
    50   25   87 1    
    51   26   88 1    
    52   26   89 1    
    53   26   90 1    
    54   27   28 am   BACKBONE|DICT|INTERRES
    55   27   91 1    
    56   28   29 2    
    57   28   30 1    
    58   30   31 1    
    59   30   32 1    
    60   30   92 1    
    61   31   93 1    
    62   31   94 1    
    63   31   95 1    
    64   32   33 am   BACKBONE|DICT|INTERRES
    65   32   96 1    
    66   33   34 2    
    67   33   35 1    
    68   35   36 1    
    69   35   37 1    
    70   35   97 1    
    71   36   98 1    
    72   36   99 1    
    73   36  100 1    
    74   37   38 am   BACKBONE|DICT|INTERRES
    75   37  101 1    
    76   38   39 2    
    77   38   40 1    
    78   40   41 1    
    79   40   42 1    
    80   40  102 1    
    81   41  103 1    
    82   41  104 1    
    83   41  105 1    
    84   42   43 am   BACKBONE|DICT|INTERRES
    85   42  106 1    
    86   43   44 2    
    87   43   45 1    
    88   45   46 1    
    89   45   49 1    
    90   45  107 1    
    91   46   47 1    
    92   46  108 1    
    93   46  109 1    
    94   47   48 1    
    95   48  110 1    
    96   48  111 1    
    97   49   50 am   BACKBONE|DICT|INTERRES
    98   49  112 1    
    99   50   51 2    
   100   50   52 1    
   101   52   53 1    
   102   52   54 1    
   103   52  113 1    
   104   53  114 1    
   105   53  115 1    
   106   53  116 1    
   107   54   55 am   BACKBONE|DICT|INTERRES
   108   54  117 1    
   109   55   56 2    
   110   55   57 1    
   111   57   58 1    
   112   57   59 1    
   113   57  118 1    
   114   58  119 1    
   115   58  120 1    
   116   58  121 1    
   117   59   60 am   BACKBONE|DICT|INTERRES
   118   59  122 1    
   119   60   61 2    
   120   60   62 1    
   121   62   63 1    
   122   62   64 1    
   123   62  123 1    
   124   63  124 1    
   125   63  125 1    
   126   63  126 1    
   127   64   65 am   BACKBONE|DICT|INTERRES
   128   64  127 1    
   129   65   66 2    
@<TRIPOS>SUBSTRUCTURE
     1 UNK         1 GROUP             0       ****    0 ROOT    
