@<TRIPOS>MOLECULE
3R135
127   129    1
SMALL
USER_CHARGES


@<TRIPOS>ATOM
      1 CA        -81.7148   27.0684  -73.5301 C.3       0 UNK        -0.1998 
      2 C         -82.1589   25.6100  -73.5116 C.2       0 UNK         0.4909 
      3 O         -83.3257   25.3400  -73.7881 O.2       0 UNK        -0.5240 
      4 N         -81.2969   24.6368  -73.1996 N.am      1 UNK        -0.4739 
      5 CA        -79.8766   24.7307  -72.8679 C.3       1 UNK         0.0864 
      6 C6        -79.6412   25.2772  -71.4376 C.3       11 UNK        -0.0881 
      7 S7        -77.9242   25.8357  -71.1802 S.3       11 UNK        -0.2682 
      8 C8        -78.1503   27.4256  -70.3231 C.3       11 UNK         0.0289 
      9 C9        -77.9899   28.6095  -71.2655 C.ar      11 UNK        -0.0687 
     10 C10       -79.1061   29.2608  -71.7997 C.ar      11 UNK        -0.0823 
     11 C11       -78.9460   30.3920  -72.6076 C.ar      11 UNK        -0.0830 
     12 C12       -77.6567   30.8580  -72.8909 C.ar      11 UNK        -0.1021 
     13 C13       -76.5300   30.2144  -72.3674 C.ar      11 UNK        -0.0753 
     14 C14       -76.7096   29.0907  -71.5527 C.ar      11 UNK        -0.0933 
     15 C15       -75.1418   30.8017  -72.6220 C.3       11 UNK         0.0166 
     16 S16       -73.8136   29.5577  -72.7747 S.3       11 UNK        -0.2615 
     17 C17       -72.3566   30.6329  -73.0326 C.3       11 UNK        -0.0865 
     18 CA        -71.7181   30.4605  -74.4429 C.3       10 UNK         0.0862 
     19 C         -70.6545   31.5536  -74.7721 C.2       10 UNK         0.5551 
     20 N         -69.6581   31.2708  -75.6025 N.am      10 UNK        -0.7319 
     21 O         -70.7487   32.6841  -74.2998 O.2       10 UNK        -0.5018 
     22 N         -71.2890   29.0730  -74.7033 N.am      10 UNK        -0.4509 
     23 C         -70.2936   28.4280  -74.0770 C.2       10 UNK         0.4899 
     24 O         -69.5649   28.9433  -73.2268 O.2       10 UNK        -0.4839 
     25 CA        -70.0979   26.9497  -74.4666 C.3       9 UNK         0.0222 
     26 CB        -68.9303   26.2738  -73.7163 C.3       9 UNK        -0.1966 
     27 N         -71.3321   26.1709  -74.3158 N.am      9 UNK        -0.4218 
     28 C         -72.0753   26.0040  -73.2108 C.2       9 UNK         0.5020 
     29 O         -71.7597   26.4351  -72.1004 O.2       9 UNK        -0.5274 
     30 CA        -73.3992   25.2238  -73.3786 C.3       8 UNK         0.0270 
     31 CB        -74.3475   25.4119  -72.1793 C.3       8 UNK        -0.1976 
     32 N         -74.1215   25.5819  -74.6041 N.am      8 UNK        -0.4313 
     33 C         -73.8229   25.1655  -75.8421 C.2       8 UNK         0.5041 
     34 O         -72.8864   24.4079  -76.0948 O.2       8 UNK        -0.5577 
     35 CA        -74.6744   25.7241  -76.9932 C.3       7 UNK         0.0284 
     36 CB        -75.8326   24.7651  -77.3102 C.3       7 UNK        -0.1958 
     37 N         -75.1979   27.0682  -76.7230 N.am      7 UNK        -0.4454 
     38 C         -74.4412   28.1727  -76.6222 C.2       7 UNK         0.5089 
     39 O         -73.2129   28.1605  -76.7233 O.2       7 UNK        -0.5125 
     40 CA        -75.1374   29.5121  -76.3109 C.3       6 UNK         0.0408 
     41 CB        -74.9506   30.5323  -77.4517 C.3       6 UNK        -0.1791 
     42 N         -76.5381   29.3994  -75.8825 N.am      6 UNK        -0.4762 
     43 C         -77.6120   29.1183  -76.6316 C.2       6 UNK         0.5007 
     44 O         -77.5821   28.9488  -77.8521 O.2       6 UNK        -0.5032 
     45 CA        -78.9437   28.9792  -75.8682 C.3       5 UNK         0.0783 
     46 C46       -79.6691   30.3427  -75.7888 C.3       11 UNK        -0.0857 
     47 S47       -80.9796   30.3163  -74.5263 S.3       11 UNK        -0.2512 
     48 C48       -80.1656   31.1487  -73.1242 C.3       11 UNK         0.0225 
     49 N         -79.7791   27.9313  -76.4681 N.am      5 UNK        -0.4615 
     50 C         -79.4268   26.6412  -76.5030 C.2       4 UNK         0.5053 
     51 O         -78.4412   26.1947  -75.9041 O.2       4 UNK        -0.5105 
     52 CA        -80.2909   25.6940  -77.3509 C.3       4 UNK         0.0263 
     53 CB        -80.4419   26.1855  -78.8040 C.3       4 UNK        -0.1981 
     54 N         -79.6249   24.3987  -77.3317 N.am      4 UNK        -0.4224 
     55 C         -80.1606   23.1910  -77.5385 C.2       3 UNK         0.4895 
     56 O         -81.3232   22.9969  -77.8916 O.2       3 UNK        -0.5091 
     57 CA        -79.2384   22.0014  -77.2382 C.3       3 UNK         0.0250 
     58 CB        -78.2778   21.7241  -78.4094 C.3       3 UNK        -0.1996 
     59 N         -78.5009   22.2828  -76.0072 N.am      3 UNK        -0.4254 
     60 C         -77.9105   21.4012  -75.1945 C.2       2 UNK         0.5004 
     61 O         -77.8013   20.1992  -75.4375 O.2       2 UNK        -0.5226 
     62 CA        -77.3693   21.9690  -73.8655 C.3       2 UNK         0.0269 
     63 CB        -75.8497   22.1862  -73.9502 C.3       2 UNK        -0.1926 
     64 N         -78.0207   23.2284  -73.4684 N.am      2 UNK        -0.4687 
     65 C         -79.2981   23.3178  -73.0699 C.2       1 UNK         0.5165 
     66 O         -80.0265   22.3352  -72.9012 O.2       1 UNK        -0.5079 
     67 H67       -80.6365   27.2040  -73.5680 H         1 UNK         0.0900 
     68 H68       -82.0903   27.5827  -72.6462 H         1 UNK         0.0900 
     69 H69       -82.1344   27.5633  -74.4054 H         1 UNK         0.0900 
     70 H70       -81.6188   23.6753  -73.2081 H         1 UNK         0.2959 
     71 H71       -79.3943   25.3840  -73.5956 H         1 UNK         0.1079 
     72 H72       -79.8915   24.5292  -70.6826 H         1 UNK         0.0837 
     73 H73       -80.3084   26.1178  -71.2476 H         1 UNK         0.0837 
     74 H74       -79.1156   27.4593  -69.8162 H         1 UNK         0.0685 
     75 H75       -77.4022   27.4949  -69.5319 H         1 UNK         0.0685 
     76 H76       -80.1001   28.9068  -71.5640 H         1 UNK         0.1434 
     77 H77       -77.5313   31.7469  -73.4946 H         1 UNK         0.1329 
     78 H78       -75.8524   28.5985  -71.1146 H         1 UNK         0.1335 
     79 H79       -74.9013   31.4739  -71.7973 H         1 UNK         0.0680 
     80 H80       -75.1512   31.4098  -73.5280 H         1 UNK         0.0680 
     81 H81       -72.6545   31.6702  -72.8708 H         1 UNK         0.1032 
     82 H82       -71.6243   30.4143  -72.2540 H         1 UNK         0.1032 
     83 H83       -72.5031   30.6540  -75.1720 H         1 UNK         0.0461 
     84 H84       -69.5770   30.3509  -76.0048 H         1 UNK         0.3453 
     85 H85       -68.9786   31.9820  -75.8220 H         1 UNK         0.3453 
     86 H86       -71.8367   28.5789  -75.4021 H         1 UNK         0.2984 
     87 H87       -69.8557   26.9397  -75.5303 H         1 UNK         0.0554 
     88 H88       -68.7928   25.2429  -74.0422 H         1 UNK         0.0847 
     89 H89       -69.0908   26.2656  -72.6377 H         1 UNK         0.0847 
     90 H90       -67.9925   26.7994  -73.9003 H         1 UNK         0.0847 
     91 H91       -71.6854   25.7302  -75.1600 H         1 UNK         0.3141 
     92 H92       -73.1364   24.1652  -73.4308 H         1 UNK         0.0743 
     93 H93       -74.6278   26.4579  -72.0476 H         1 UNK         0.0784 
     94 H94       -73.8806   25.0798  -71.2512 H         1 UNK         0.0784 
     95 H95       -75.2624   24.8333  -72.3001 H         1 UNK         0.0784 
     96 H96       -74.8727   26.2483  -74.5016 H         1 UNK         0.3213 
     97 H97       -74.0340   25.7895  -77.8758 H         1 UNK         0.0855 
     98 H98       -75.4531   23.7926  -77.6273 H         1 UNK         0.0814 
     99 H99       -76.4604   25.1470  -78.1156 H         1 UNK         0.0814 
    100 H100      -76.4612   24.5945  -76.4371 H         1 UNK         0.0814 
    101 H101      -76.2010   27.1616  -76.6348 H         1 UNK         0.3105 
    102 H102      -74.6204   29.9192  -75.4473 H         1 UNK         0.0547 
    103 H103      -73.8917   30.7286  -77.6247 H         1 UNK         0.0837 
    104 H104      -75.3654   30.1758  -78.3946 H         1 UNK         0.0837 
    105 H105      -75.4210   31.4862  -77.2143 H         1 UNK         0.0837 
    106 H106      -76.6756   29.5023  -74.8850 H         1 UNK         0.3020 
    107 H107      -78.7038   28.6518  -74.8536 H         1 UNK         0.1245 
    108 H108      -80.1119   30.6016  -76.7523 H         1 UNK         0.0781 
    109 H109      -78.9762   31.1529  -75.5531 H         1 UNK         0.0781 
    110 H110      -80.8897   31.2563  -72.3153 H         1 UNK         0.0836 
    111 H111      -79.8947   32.1639  -73.4185 H         1 UNK         0.0836 
    112 H112      -80.5853   28.2433  -76.9884 H         1 UNK         0.3022 
    113 H113      -81.2714   25.6051  -76.8787 H         1 UNK         0.0747 
    114 H114      -80.9862   25.4636  -79.4131 H         1 UNK         0.0793 
    115 H115      -80.9960   27.1232  -78.8530 H         1 UNK         0.0793 
    116 H116      -79.4714   26.3526  -79.2737 H         1 UNK         0.0793 
    117 H117      -78.6595   24.4729  -77.0394 H         1 UNK         0.3047 
    118 H118      -79.8663   21.1226  -77.0754 H         1 UNK         0.0822 
    119 H119      -77.6102   22.5656  -78.5957 H         1 UNK         0.0807 
    120 H120      -78.8319   21.5359  -79.3300 H         1 UNK         0.0807 
    121 H121      -77.6617   20.8453  -78.2188 H         1 UNK         0.0807 
    122 H122      -78.5816   23.2264  -75.6590 H         1 UNK         0.2946 
    123 H123      -77.5668   21.2219  -73.0930 H         1 UNK         0.1144 
    124 H124      -75.3396   21.2662  -74.2396 H         1 UNK         0.0793 
    125 H125      -75.5885   22.9462  -74.6859 H         1 UNK         0.0793 
    126 H126      -75.4381   22.4901  -72.9880 H         1 UNK         0.0793 
    127 H127      -77.4703   24.0728  -73.5399 H         1 UNK         0.2896 
@<TRIPOS>BOND
     1    1    2 1    
     2    1   67 1    
     3    1   68 1    
     4    1   69 1    
     5    2    3 2    
     6    2    4 am   BACKBONE|DICT|INTERRES
     7    4    5 1    
     8    4   70 1    
     9    5    6 1    
    10    5   65 1    
    11    5   71 1    
    12    6    7 1    
    13    6   72 1    
    14    6   73 1    
    15    7    8 1    
    16    8    9 1    
    17    8   74 1    
    18    8   75 1    
    19    9   10 ar   
    20    9   14 ar   
    21   10   11 ar   
    22   10   76 1    
    23   11   12 ar   
    24   11   48 1    
    25   12   13 ar   
    26   12   77 1    
    27   13   14 ar   
    28   13   15 1    
    29   14   78 1    
    30   15   16 1    
    31   15   79 1    
    32   15   80 1    
    33   16   17 1    
    34   17   18 1    
    35   17   81 1    
    36   17   82 1    
    37   18   19 1    
    38   18   22 1    
    39   18   83 1    
    40   19   20 am   BACKBONE|DICT|INTERRES
    41   19   21 2    
    42   20   84 1    
    43   20   85 1    
    44   22   23 am   BACKBONE|DICT|INTERRES
    45   22   86 1    
    46   23   24 2    
    47   23   25 1    
    48   25   26 1    
    49   25   27 1    
    50   25   87 1    
    51   26   88 1    
    52   26   89 1    
    53   26   90 1    
    54   27   28 am   BACKBONE|DICT|INTERRES
    55   27   91 1    
    56   28   29 2    
    57   28   30 1    
    58   30   31 1    
    59   30   32 1    
    60   30   92 1    
    61   31   93 1    
    62   31   94 1    
    63   31   95 1    
    64   32   33 am   BACKBONE|DICT|INTERRES
    65   32   96 1    
    66   33   34 2    
    67   33   35 1    
    68   35   36 1    
    69   35   37 1    
    70   35   97 1    
    71   36   98 1    
    72   36   99 1    
    73   36  100 1    
    74   37   38 am   BACKBONE|DICT|INTERRES
    75   37  101 1    
    76   38   39 2    
    77   38   40 1    
    78   40   41 1    
    79   40   42 1    
    80   40  102 1    
    81   41  103 1    
    82   41  104 1    
    83   41  105 1    
    84   42   43 am   BACKBONE|DICT|INTERRES
    85   42  106 1    
    86   43   44 2    
    87   43   45 1    
    88   45   46 1    
    89   45   49 1    
    90   45  107 1    
    91   46   47 1    
    92   46  108 1    
    93   46  109 1    
    94   47   48 1    
    95   48  110 1    
    96   48  111 1    
    97   49   50 am   BACKBONE|DICT|INTERRES
    98   49  112 1    
    99   50   51 2    
   100   50   52 1    
   101   52   53 1    
   102   52   54 1    
   103   52  113 1    
   104   53  114 1    
   105   53  115 1    
   106   53  116 1    
   107   54   55 am   BACKBONE|DICT|INTERRES
   108   54  117 1    
   109   55   56 2    
   110   55   57 1    
   111   57   58 1    
   112   57   59 1    
   113   57  118 1    
   114   58  119 1    
   115   58  120 1    
   116   58  121 1    
   117   59   60 am   BACKBONE|DICT|INTERRES
   118   59  122 1    
   119   60   61 2    
   120   60   62 1    
   121   62   63 1    
   122   62   64 1    
   123   62  123 1    
   124   63  124 1    
   125   63  125 1    
   126   63  126 1    
   127   64   65 am   BACKBONE|DICT|INTERRES
   128   64  127 1    
   129   65   66 2    
@<TRIPOS>SUBSTRUCTURE
     1 UNK         1 GROUP             0       ****    0 ROOT    
