@<TRIPOS>MOLECULE
3R135
127   129    1
SMALL
USER_CHARGES


@<TRIPOS>ATOM
      1 CA        -78.4561   30.5065  -76.3215 C.3       0 UNK        -0.1998 
      2 C         -78.8125   29.4802  -75.2568 C.2       0 UNK         0.4909 
      3 O         -77.9492   28.7086  -74.8432 O.2       0 UNK        -0.5240 
      4 N         -80.0711   29.4741  -74.8027 N.am      1 UNK        -0.4739 
      5 CA        -80.5804   28.5172  -73.8164 C.3       1 UNK         0.0864 
      6 C6        -81.7918   29.0741  -73.0284 C.3       11 UNK        -0.0881 
      7 S7        -81.3966   30.5862  -72.0888 S.3       11 UNK        -0.2682 
      8 C8        -80.9965   29.9083  -70.4459 C.3       11 UNK         0.0289 
      9 C9        -79.6014   29.3003  -70.4108 C.ar      11 UNK        -0.0687 
     10 C10       -79.4220   27.9138  -70.4419 C.ar      11 UNK        -0.0823 
     11 C11       -78.1380   27.3574  -70.4075 C.ar      11 UNK        -0.0830 
     12 C12       -77.0315   28.2108  -70.2953 C.ar      11 UNK        -0.1021 
     13 C13       -77.1960   29.6007  -70.2788 C.ar      11 UNK        -0.0753 
     14 C14       -78.4849   30.1357  -70.3361 C.ar      11 UNK        -0.0933 
     15 C15       -75.9971   30.5397  -70.1759 C.3       11 UNK         0.0166 
     16 S16       -74.6552   30.1583  -71.3499 S.3       11 UNK        -0.2615 
     17 C17       -75.5312   30.1649  -72.9536 C.3       11 UNK        -0.0865 
     18 CA        -74.6222   30.1798  -74.2231 C.3       10 UNK         0.0862 
     19 C         -74.0524   31.5673  -74.6452 C.2       10 UNK         0.5551 
     20 N         -74.2664   32.6268  -73.8752 N.am      10 UNK        -0.7319 
     21 O         -73.4623   31.6950  -75.7165 O.2       10 UNK        -0.5018 
     22 N         -73.6507   29.0705  -74.2596 N.am      10 UNK        -0.4509 
     23 C         -72.3992   29.0560  -73.7709 C.2       10 UNK         0.4899 
     24 O         -71.8319   30.0255  -73.2667 O.2       10 UNK        -0.4839 
     25 CA        -71.6402   27.7229  -73.8256 C.3       9 UNK         0.0222 
     26 CB        -72.0080   26.8448  -72.6160 C.3       9 UNK        -0.1966 
     27 N         -71.8857   26.9837  -75.0650 N.am      9 UNK        -0.4218 
     28 C         -70.9595   26.2902  -75.7386 C.2       9 UNK         0.5020 
     29 O         -69.7757   26.2149  -75.4045 O.2       9 UNK        -0.5274 
     30 CA        -71.4277   25.5323  -76.9930 C.3       8 UNK         0.0270 
     31 CB        -71.9654   24.1440  -76.6085 C.3       8 UNK        -0.1976 
     32 N         -72.4483   26.2411  -77.7655 N.am      8 UNK        -0.4313 
     33 C         -72.2775   27.3890  -78.4314 C.2       8 UNK         0.5041 
     34 O         -71.2060   27.9943  -78.4777 O.2       8 UNK        -0.5577 
     35 CA        -73.4967   27.9742  -79.1747 C.3       7 UNK         0.0284 
     36 CB        -73.5295   27.4980  -80.6404 C.3       7 UNK        -0.1958 
     37 N         -74.7934   27.7622  -78.5097 N.am      7 UNK        -0.4454 
     38 C         -75.4475   26.6141  -78.2837 C.2       7 UNK         0.5089 
     39 O         -75.0550   25.5061  -78.6536 O.2       7 UNK        -0.5125 
     40 CA        -76.7211   26.7216  -77.4306 C.3       6 UNK         0.0408 
     41 CB        -77.9542   26.2569  -78.2203 C.3       6 UNK        -0.1791 
     42 N         -76.6339   25.9581  -76.1828 N.am      6 UNK        -0.4762 
     43 C         -75.6531   26.0290  -75.2706 C.2       6 UNK         0.5007 
     44 O         -74.6490   26.7313  -75.3964 O.2       6 UNK        -0.5032 
     45 CA        -75.8075   25.1922  -73.9901 C.3       5 UNK         0.0783 
     46 C46       -76.5492   26.0136  -72.9091 C.3       11 UNK        -0.0857 
     47 S47       -76.4562   25.2323  -71.2652 S.3       11 UNK        -0.2512 
     48 C48       -77.9871   25.8350  -70.4674 C.3       11 UNK         0.0225 
     49 N         -76.4740   23.9192  -74.2723 N.am      5 UNK        -0.4615 
     50 C         -75.8487   22.7458  -74.4293 C.2       4 UNK         0.5053 
     51 O         -74.6279   22.6073  -74.3522 O.2       4 UNK        -0.5105 
     52 CA        -76.7218   21.5036  -74.6950 C.3       4 UNK         0.0263 
     53 CB        -76.9686   20.7398  -73.3836 C.3       4 UNK        -0.1981 
     54 N         -78.0123   21.8183  -75.3120 N.am      4 UNK        -0.4224 
     55 C         -78.1778   22.1697  -76.5948 C.2       3 UNK         0.4895 
     56 O         -77.2694   22.1731  -77.4253 O.2       3 UNK        -0.5091 
     57 CA        -79.5915   22.6109  -77.0276 C.3       3 UNK         0.0250 
     58 CB        -80.3410   21.4362  -77.6771 C.3       3 UNK        -0.1996 
     59 N         -80.4283   23.1883  -75.9638 N.am      3 UNK        -0.4254 
     60 C         -80.0954   24.2396  -75.2022 C.2       2 UNK         0.5004 
     61 O         -78.9918   24.7833  -75.2423 O.2       2 UNK        -0.5226 
     62 CA        -81.1387   24.7226  -74.1821 C.3       2 UNK         0.0269 
     63 CB        -81.1498   23.7945  -72.9555 C.3       2 UNK        -0.1926 
     64 N         -80.8660   26.0901  -73.7288 N.am      2 UNK        -0.4687 
     65 C         -80.9581   27.1864  -74.4944 C.2       1 UNK         0.5165 
     66 O         -81.3727   27.1789  -75.6572 O.2       1 UNK        -0.5079 
     67 H67       -78.1765   30.0042  -77.2469 H         1 UNK         0.0900 
     68 H68       -77.6116   31.1109  -75.9913 H         1 UNK         0.0900 
     69 H69       -79.2887   31.1762  -76.5360 H         1 UNK         0.0900 
     70 H70       -80.7511   30.1134  -75.1873 H         1 UNK         0.2959 
     71 H71       -79.7751   28.3086  -73.1105 H         1 UNK         0.1079 
     72 H72       -82.6120   29.3084  -73.7099 H         1 UNK         0.0837 
     73 H73       -82.1854   28.3255  -72.3379 H         1 UNK         0.0837 
     74 H74       -81.0527   30.7154  -69.7139 H         1 UNK         0.0685 
     75 H75       -81.7511   29.1791  -70.1472 H         1 UNK         0.0685 
     76 H76       -80.2871   27.2672  -70.4958 H         1 UNK         0.1434 
     77 H77       -76.0336   27.7990  -70.2388 H         1 UNK         0.1329 
     78 H78       -78.6257   31.2079  -70.3168 H         1 UNK         0.1335 
     79 H79       -76.3034   31.5751  -70.3329 H         1 UNK         0.0680 
     80 H80       -75.5988   30.4875  -69.1619 H         1 UNK         0.0680 
     81 H81       -76.2470   30.9882  -72.9779 H         1 UNK         0.1032 
     82 H82       -76.1498   29.2689  -72.9811 H         1 UNK         0.1032 
     83 H83       -75.2977   29.9425  -75.0464 H         1 UNK         0.0461 
     84 H84       -73.9130   33.5252  -74.1644 H         1 UNK         0.3453 
     85 H85       -74.7160   32.5257  -72.9787 H         1 UNK         0.3453 
     86 H86       -74.0182   28.2133  -74.6633 H         1 UNK         0.2984 
     87 H87       -70.5782   27.9684  -73.7562 H         1 UNK         0.0554 
     88 H88       -71.4164   25.9296  -72.5943 H         1 UNK         0.0847 
     89 H89       -73.0619   26.5642  -72.6267 H         1 UNK         0.0847 
     90 H90       -71.8228   27.3737  -71.6800 H         1 UNK         0.0847 
     91 H91       -72.8454   26.9587  -75.4025 H         1 UNK         0.3141 
     92 H92       -70.5584   25.3963  -77.6398 H         1 UNK         0.0743 
     93 H93       -72.8594   24.2151  -75.9869 H         1 UNK         0.0784 
     94 H94       -72.2187   23.5572  -77.4916 H         1 UNK         0.0784 
     95 H95       -71.2216   23.5778  -76.0460 H         1 UNK         0.0784 
     96 H96       -73.3636   25.8040  -77.8380 H         1 UNK         0.3213 
     97 H97       -73.3521   29.0560  -79.1883 H         1 UNK         0.0855 
     98 H98       -72.6037   27.7610  -81.1538 H         1 UNK         0.0814 
     99 H99       -74.3478   27.9623  -81.1907 H         1 UNK         0.0814 
    100 H100      -73.6435   26.4164  -80.7177 H         1 UNK         0.0814 
    101 H101      -75.1949   28.5992  -78.1100 H         1 UNK         0.3105 
    102 H102      -76.8708   27.7665  -77.1553 H         1 UNK         0.0547 
    103 H103      -78.0646   26.8244  -79.1450 H         1 UNK         0.0837 
    104 H104      -77.8811   25.2024  -78.4894 H         1 UNK         0.0837 
    105 H105      -78.8692   26.3942  -77.6429 H         1 UNK         0.0837 
    106 H106      -77.4559   25.4075  -75.9437 H         1 UNK         0.3020 
    107 H107      -74.7958   25.0001  -73.6252 H         1 UNK         0.1245 
    108 H108      -77.5933   26.1700  -73.1886 H         1 UNK         0.0781 
    109 H109      -76.1060   27.0053  -72.8134 H         1 UNK         0.0781 
    110 H110      -78.0219   25.4450  -69.4495 H         1 UNK         0.0836 
    111 H111      -78.8348   25.3943  -70.9935 H         1 UNK         0.0836 
    112 H112      -77.4756   23.9751  -74.4251 H         1 UNK         0.3022 
    113 H113      -76.1663   20.8501  -75.3713 H         1 UNK         0.0747 
    114 H114      -77.5273   19.8200  -73.5579 H         1 UNK         0.0793 
    115 H115      -76.0252   20.4595  -72.9127 H         1 UNK         0.0793 
    116 H116      -77.5249   21.3419  -72.6636 H         1 UNK         0.0793 
    117 H117      -78.8191   21.8295  -74.7058 H         1 UNK         0.3047 
    118 H118      -79.4603   23.3874  -77.7837 H         1 UNK         0.0822 
    119 H119      -81.2929   21.7566  -78.1011 H         1 UNK         0.0807 
    120 H120      -80.5423   20.6396  -76.9597 H         1 UNK         0.0807 
    121 H121      -79.7580   21.0020  -78.4908 H         1 UNK         0.0807 
    122 H122      -81.3450   22.7796  -75.8486 H         1 UNK         0.2946 
    123 H123      -82.1219   24.7076  -74.6582 H         1 UNK         0.1144 
    124 H124      -81.4096   22.7727  -73.2353 H         1 UNK         0.0793 
    125 H125      -81.8846   24.1191  -72.2182 H         1 UNK         0.0793 
    126 H126      -80.1756   23.7594  -72.4656 H         1 UNK         0.0793 
    127 H127      -80.5073   26.1820  -72.7914 H         1 UNK         0.2896 
@<TRIPOS>BOND
     1    1    2 1    
     2    1   67 1    
     3    1   68 1    
     4    1   69 1    
     5    2    3 2    
     6    2    4 am   BACKBONE|DICT|INTERRES
     7    4    5 1    
     8    4   70 1    
     9    5    6 1    
    10    5   65 1    
    11    5   71 1    
    12    6    7 1    
    13    6   72 1    
    14    6   73 1    
    15    7    8 1    
    16    8    9 1    
    17    8   74 1    
    18    8   75 1    
    19    9   10 ar   
    20    9   14 ar   
    21   10   11 ar   
    22   10   76 1    
    23   11   12 ar   
    24   11   48 1    
    25   12   13 ar   
    26   12   77 1    
    27   13   14 ar   
    28   13   15 1    
    29   14   78 1    
    30   15   16 1    
    31   15   79 1    
    32   15   80 1    
    33   16   17 1    
    34   17   18 1    
    35   17   81 1    
    36   17   82 1    
    37   18   19 1    
    38   18   22 1    
    39   18   83 1    
    40   19   20 am   BACKBONE|DICT|INTERRES
    41   19   21 2    
    42   20   84 1    
    43   20   85 1    
    44   22   23 am   BACKBONE|DICT|INTERRES
    45   22   86 1    
    46   23   24 2    
    47   23   25 1    
    48   25   26 1    
    49   25   27 1    
    50   25   87 1    
    51   26   88 1    
    52   26   89 1    
    53   26   90 1    
    54   27   28 am   BACKBONE|DICT|INTERRES
    55   27   91 1    
    56   28   29 2    
    57   28   30 1    
    58   30   31 1    
    59   30   32 1    
    60   30   92 1    
    61   31   93 1    
    62   31   94 1    
    63   31   95 1    
    64   32   33 am   BACKBONE|DICT|INTERRES
    65   32   96 1    
    66   33   34 2    
    67   33   35 1    
    68   35   36 1    
    69   35   37 1    
    70   35   97 1    
    71   36   98 1    
    72   36   99 1    
    73   36  100 1    
    74   37   38 am   BACKBONE|DICT|INTERRES
    75   37  101 1    
    76   38   39 2    
    77   38   40 1    
    78   40   41 1    
    79   40   42 1    
    80   40  102 1    
    81   41  103 1    
    82   41  104 1    
    83   41  105 1    
    84   42   43 am   BACKBONE|DICT|INTERRES
    85   42  106 1    
    86   43   44 2    
    87   43   45 1    
    88   45   46 1    
    89   45   49 1    
    90   45  107 1    
    91   46   47 1    
    92   46  108 1    
    93   46  109 1    
    94   47   48 1    
    95   48  110 1    
    96   48  111 1    
    97   49   50 am   BACKBONE|DICT|INTERRES
    98   49  112 1    
    99   50   51 2    
   100   50   52 1    
   101   52   53 1    
   102   52   54 1    
   103   52  113 1    
   104   53  114 1    
   105   53  115 1    
   106   53  116 1    
   107   54   55 am   BACKBONE|DICT|INTERRES
   108   54  117 1    
   109   55   56 2    
   110   55   57 1    
   111   57   58 1    
   112   57   59 1    
   113   57  118 1    
   114   58  119 1    
   115   58  120 1    
   116   58  121 1    
   117   59   60 am   BACKBONE|DICT|INTERRES
   118   59  122 1    
   119   60   61 2    
   120   60   62 1    
   121   62   63 1    
   122   62   64 1    
   123   62  123 1    
   124   63  124 1    
   125   63  125 1    
   126   63  126 1    
   127   64   65 am   BACKBONE|DICT|INTERRES
   128   64  127 1    
   129   65   66 2    
@<TRIPOS>SUBSTRUCTURE
     1 UNK         1 GROUP             0       ****    0 ROOT    
