@<TRIPOS>MOLECULE
3R135
127   129    1
SMALL
USER_CHARGES


@<TRIPOS>ATOM
      1 CA        -82.1290   28.4878  -78.7239 C.3       0 UNK        -0.1998 
      2 C         -82.4162   28.2483  -77.2477 C.2       0 UNK         0.4909 
      3 O         -83.5591   28.4189  -76.8195 O.2       0 UNK        -0.5240 
      4 N         -81.3812   27.8616  -76.4850 N.am      1 UNK        -0.4739 
      5 CA        -81.3915   27.5343  -75.0477 C.3       1 UNK         0.0864 
      6 C6        -81.9319   28.6788  -74.1416 C.3       11 UNK        -0.0881 
      7 S7        -80.9768   30.2270  -74.3173 S.3       11 UNK        -0.2682 
      8 C8        -80.3549   30.4976  -72.6269 C.3       11 UNK         0.0289 
      9 C9        -79.0786   29.7153  -72.3499 C.ar      11 UNK        -0.0687 
     10 C10       -79.1372   28.4156  -71.8349 C.ar      11 UNK        -0.0823 
     11 C11       -77.9623   27.7121  -71.5534 C.ar      11 UNK        -0.0830 
     12 C12       -76.7304   28.3262  -71.7778 C.ar      11 UNK        -0.1021 
     13 C13       -76.6498   29.6179  -72.3001 C.ar      11 UNK        -0.0753 
     14 C14       -77.8324   30.3077  -72.5852 C.ar      11 UNK        -0.0933 
     15 C15       -75.2944   30.2482  -72.6045 C.3       11 UNK         0.0166 
     16 S16       -74.2551   30.4954  -71.1265 S.3       11 UNK        -0.2615 
     17 C17       -73.2271   28.9802  -71.0797 C.3       11 UNK        -0.0865 
     18 CA        -71.8814   29.1402  -71.8298 C.3       10 UNK         0.0862 
     19 C         -70.9395   27.9449  -71.5385 C.2       10 UNK         0.5551 
     20 N         -69.9127   28.1452  -70.7241 N.am      10 UNK        -0.7319 
     21 O         -71.1571   26.8306  -72.0091 O.2       10 UNK        -0.5018 
     22 N         -72.1013   29.2497  -73.2745 N.am      10 UNK        -0.4509 
     23 C         -71.4351   30.0714  -74.0915 C.2       10 UNK         0.4899 
     24 O         -70.5701   30.8656  -73.7161 O.2       10 UNK        -0.4839 
     25 CA        -71.8189   29.9908  -75.5804 C.3       9 UNK         0.0222 
     26 CB        -70.9023   30.8318  -76.4947 C.3       9 UNK        -0.1966 
     27 N         -71.9195   28.6092  -76.0619 N.am      9 UNK        -0.4218 
     28 C         -70.9457   27.6852  -76.1153 C.2       9 UNK         0.5020 
     29 O         -69.7820   27.8926  -75.7679 O.2       9 UNK        -0.5274 
     30 CA        -71.3183   26.2832  -76.6405 C.3       8 UNK         0.0270 
     31 CB        -71.2741   25.2569  -75.4958 C.3       8 UNK        -0.1976 
     32 N         -72.6344   26.2176  -77.2803 N.am      8 UNK        -0.4313 
     33 C         -72.9607   26.7682  -78.4573 C.2       8 UNK         0.5041 
     34 O         -72.1542   27.3229  -79.2041 O.2       8 UNK        -0.5577 
     35 CA        -74.4523   26.7418  -78.8345 C.3       7 UNK         0.0284 
     36 CB        -74.8094   25.4431  -79.5764 C.3       7 UNK        -0.1958 
     37 N         -75.3287   26.9094  -77.6679 N.am      7 UNK        -0.4454 
     38 C         -75.4277   28.0375  -76.9494 C.2       7 UNK         0.5089 
     39 O         -74.8101   29.0690  -77.2096 O.2       7 UNK        -0.5125 
     40 CA        -76.3306   27.9990  -75.7069 C.3       6 UNK         0.0408 
     41 CB        -77.7962   28.2572  -76.0766 C.3       6 UNK        -0.1791 
     42 N         -76.2167   26.7434  -74.9630 N.am      6 UNK        -0.4762 
     43 C         -75.1518   26.3971  -74.2229 C.2       6 UNK         0.5007 
     44 O         -74.1732   27.1274  -74.0509 O.2       6 UNK        -0.5032 
     45 CA        -75.1574   24.9724  -73.6214 C.3       5 UNK         0.0783 
     46 C46       -75.8302   24.9155  -72.2233 C.3       11 UNK        -0.0857 
     47 S47       -77.6631   25.0373  -72.2524 S.3       11 UNK        -0.2512 
     48 C48       -78.0149   26.3001  -70.9863 C.3       11 UNK         0.0225 
     49 N         -75.7429   23.9730  -74.5191 N.am      5 UNK        -0.4615 
     50 C         -75.3906   23.7247  -75.7857 C.2       4 UNK         0.5053 
     51 O         -74.4196   24.2485  -76.3276 O.2       4 UNK        -0.5105 
     52 CA        -76.2823   22.7704  -76.6080 C.3       4 UNK         0.0263 
     53 CB        -75.4731   21.5531  -77.0847 C.3       4 UNK        -0.1981 
     54 N         -77.4913   22.3021  -75.9165 N.am      4 UNK        -0.4224 
     55 C         -78.5183   23.0660  -75.5169 C.2       3 UNK         0.4895 
     56 O         -78.5822   24.2840  -75.7144 O.2       3 UNK        -0.5091 
     57 CA        -79.6185   22.3560  -74.7122 C.3       3 UNK         0.0250 
     58 CB        -79.0413   21.4460  -73.6036 C.3       3 UNK        -0.1996 
     59 N         -80.4847   23.3690  -74.1198 N.am      3 UNK        -0.4254 
     60 C         -81.7231   23.1813  -73.6510 C.2       2 UNK         0.5004 
     61 O         -82.3051   22.0955  -73.6657 O.2       2 UNK        -0.5226 
     62 CA        -82.4352   24.4076  -73.0495 C.3       2 UNK         0.0269 
     63 CB        -82.3519   24.3702  -71.5140 C.3       2 UNK        -0.1926 
     64 N         -81.8991   25.6897  -73.5204 N.am      2 UNK        -0.4687 
     65 C         -82.0835   26.1834  -74.7534 C.2       1 UNK         0.5165 
     66 O         -82.7379   25.5973  -75.6195 O.2       1 UNK        -0.5079 
     67 H67       -82.3524   29.5223  -78.9860 H         1 UNK         0.0900 
     68 H68       -81.0857   28.2912  -78.9763 H         1 UNK         0.0900 
     69 H69       -82.7539   27.8381  -79.3376 H         1 UNK         0.0900 
     70 H70       -80.4887   27.7240  -76.9363 H         1 UNK         0.2959 
     71 H71       -80.3469   27.3735  -74.7792 H         1 UNK         0.1079 
     72 H72       -82.9771   28.8956  -74.3673 H         1 UNK         0.0837 
     73 H73       -81.9262   28.3804  -73.0930 H         1 UNK         0.0837 
     74 H74       -80.1626   31.5641  -72.4996 H         1 UNK         0.0685 
     75 H75       -81.1258   30.2480  -71.8963 H         1 UNK         0.0685 
     76 H76       -80.0959   27.9572  -71.6405 H         1 UNK         0.1434 
     77 H77       -75.8298   27.7865  -71.5528 H         1 UNK         0.1329 
     78 H78       -77.7863   31.3080  -72.9935 H         1 UNK         0.1335 
     79 H79       -74.7642   29.6347  -73.3293 H         1 UNK         0.0680 
     80 H80       -75.4318   31.2187  -73.0823 H         1 UNK         0.0680 
     81 H81       -73.0470   28.7533  -70.0270 H         1 UNK         0.1032 
     82 H82       -73.7682   28.1250  -71.4786 H         1 UNK         0.1032 
     83 H83       -71.4046   30.0513  -71.4619 H         1 UNK         0.0461 
     84 H84       -69.2986   27.3747  -70.5111 H         1 UNK         0.3453 
     85 H85       -69.7318   29.0539  -70.3272 H         1 UNK         0.3453 
     86 H86       -72.7453   28.5708  -73.6686 H         1 UNK         0.2984 
     87 H87       -72.8242   30.4081  -75.6552 H         1 UNK         0.0554 
     88 H88       -70.9286   31.8845  -76.2109 H         1 UNK         0.0847 
     89 H89       -71.2178   30.7698  -77.5363 H         1 UNK         0.0847 
     90 H90       -69.8627   30.5073  -76.4389 H         1 UNK         0.0847 
     91 H91       -72.8414   28.3347  -76.3770 H         1 UNK         0.3141 
     92 H92       -70.5685   26.0035  -77.3833 H         1 UNK         0.0743 
     93 H93       -71.9890   25.5025  -74.7098 H         1 UNK         0.0784 
     94 H94       -71.4980   24.2513  -75.8522 H         1 UNK         0.0784 
     95 H95       -70.2857   25.2262  -75.0352 H         1 UNK         0.0784 
     96 H96       -73.3519   25.6860  -76.7896 H         1 UNK         0.3213 
     97 H97       -74.6346   27.5796  -79.5113 H         1 UNK         0.0855 
     98 H98       -74.6355   24.5594  -78.9622 H         1 UNK         0.0814 
     99 H99       -74.2035   25.3340  -80.4770 H         1 UNK         0.0814 
    100 H100      -75.8538   25.4368  -79.8879 H         1 UNK         0.0814 
    101 H101      -75.8333   26.0943  -77.3532 H         1 UNK         0.3105 
    102 H102      -76.0142   28.8140  -75.0563 H         1 UNK         0.0547 
    103 H103      -77.8936   29.1403  -76.7095 H         1 UNK         0.0837 
    104 H104      -78.2360   27.4149  -76.6110 H         1 UNK         0.0837 
    105 H105      -78.3839   28.4453  -75.1794 H         1 UNK         0.0837 
    106 H106      -76.9807   26.0838  -75.0393 H         1 UNK         0.3020 
    107 H107      -74.1076   24.6987  -73.4953 H         1 UNK         0.1245 
    108 H108      -75.3988   25.6597  -71.5552 H         1 UNK         0.0781 
    109 H109      -75.5885   23.9584  -71.7587 H         1 UNK         0.0781 
    110 H110      -77.3165   26.2012  -70.1541 H         1 UNK         0.0836 
    111 H111      -79.0037   26.1021  -70.5698 H         1 UNK         0.0836 
    112 H112      -76.5686   23.5145  -74.1649 H         1 UNK         0.3022 
    113 H113      -76.6053   23.3285  -77.4890 H         1 UNK         0.0747 
    114 H114      -76.0646   20.9142  -77.7406 H         1 UNK         0.0793 
    115 H115      -74.5930   21.8636  -77.6501 H         1 UNK         0.0793 
    116 H116      -75.1247   20.9472  -76.2474 H         1 UNK         0.0793 
    117 H117      -77.5211   21.3159  -75.7002 H         1 UNK         0.3047 
    118 H118      -80.2045   21.7559  -75.4113 H         1 UNK         0.0822 
    119 H119      -78.4567   20.6236  -74.0166 H         1 UNK         0.0807 
    120 H120      -79.8326   20.9918  -73.0072 H         1 UNK         0.0807 
    121 H121      -78.3958   22.0023  -72.9224 H         1 UNK         0.0807 
    122 H122      -80.0948   24.3030  -74.1288 H         1 UNK         0.2946 
    123 H123      -83.4869   24.3452  -73.3405 H         1 UNK         0.1144 
    124 H124      -82.9162   25.1879  -71.0647 H         1 UNK         0.0793 
    125 H125      -81.3207   24.4378  -71.1631 H         1 UNK         0.0793 
    126 H126      -82.7677   23.4402  -71.1232 H         1 UNK         0.0793 
    127 H127      -81.3406   26.2080  -72.8590 H         1 UNK         0.2896 
@<TRIPOS>BOND
     1    1    2 1    
     2    1   67 1    
     3    1   68 1    
     4    1   69 1    
     5    2    3 2    
     6    2    4 am   BACKBONE|DICT|INTERRES
     7    4    5 1    
     8    4   70 1    
     9    5    6 1    
    10    5   65 1    
    11    5   71 1    
    12    6    7 1    
    13    6   72 1    
    14    6   73 1    
    15    7    8 1    
    16    8    9 1    
    17    8   74 1    
    18    8   75 1    
    19    9   10 ar   
    20    9   14 ar   
    21   10   11 ar   
    22   10   76 1    
    23   11   12 ar   
    24   11   48 1    
    25   12   13 ar   
    26   12   77 1    
    27   13   14 ar   
    28   13   15 1    
    29   14   78 1    
    30   15   16 1    
    31   15   79 1    
    32   15   80 1    
    33   16   17 1    
    34   17   18 1    
    35   17   81 1    
    36   17   82 1    
    37   18   19 1    
    38   18   22 1    
    39   18   83 1    
    40   19   20 am   BACKBONE|DICT|INTERRES
    41   19   21 2    
    42   20   84 1    
    43   20   85 1    
    44   22   23 am   BACKBONE|DICT|INTERRES
    45   22   86 1    
    46   23   24 2    
    47   23   25 1    
    48   25   26 1    
    49   25   27 1    
    50   25   87 1    
    51   26   88 1    
    52   26   89 1    
    53   26   90 1    
    54   27   28 am   BACKBONE|DICT|INTERRES
    55   27   91 1    
    56   28   29 2    
    57   28   30 1    
    58   30   31 1    
    59   30   32 1    
    60   30   92 1    
    61   31   93 1    
    62   31   94 1    
    63   31   95 1    
    64   32   33 am   BACKBONE|DICT|INTERRES
    65   32   96 1    
    66   33   34 2    
    67   33   35 1    
    68   35   36 1    
    69   35   37 1    
    70   35   97 1    
    71   36   98 1    
    72   36   99 1    
    73   36  100 1    
    74   37   38 am   BACKBONE|DICT|INTERRES
    75   37  101 1    
    76   38   39 2    
    77   38   40 1    
    78   40   41 1    
    79   40   42 1    
    80   40  102 1    
    81   41  103 1    
    82   41  104 1    
    83   41  105 1    
    84   42   43 am   BACKBONE|DICT|INTERRES
    85   42  106 1    
    86   43   44 2    
    87   43   45 1    
    88   45   46 1    
    89   45   49 1    
    90   45  107 1    
    91   46   47 1    
    92   46  108 1    
    93   46  109 1    
    94   47   48 1    
    95   48  110 1    
    96   48  111 1    
    97   49   50 am   BACKBONE|DICT|INTERRES
    98   49  112 1    
    99   50   51 2    
   100   50   52 1    
   101   52   53 1    
   102   52   54 1    
   103   52  113 1    
   104   53  114 1    
   105   53  115 1    
   106   53  116 1    
   107   54   55 am   BACKBONE|DICT|INTERRES
   108   54  117 1    
   109   55   56 2    
   110   55   57 1    
   111   57   58 1    
   112   57   59 1    
   113   57  118 1    
   114   58  119 1    
   115   58  120 1    
   116   58  121 1    
   117   59   60 am   BACKBONE|DICT|INTERRES
   118   59  122 1    
   119   60   61 2    
   120   60   62 1    
   121   62   63 1    
   122   62   64 1    
   123   62  123 1    
   124   63  124 1    
   125   63  125 1    
   126   63  126 1    
   127   64   65 am   BACKBONE|DICT|INTERRES
   128   64  127 1    
   129   65   66 2    
@<TRIPOS>SUBSTRUCTURE
     1 UNK         1 GROUP             0       ****    0 ROOT    
