@<TRIPOS>MOLECULE
3R135
127   129    1
SMALL
USER_CHARGES


@<TRIPOS>ATOM
      1 CA        -83.5240   29.6834  -76.3836 C.3       0 UNK        -0.1998 
      2 C         -82.5650   28.8858  -75.5121 C.2       0 UNK         0.4909 
      3 O         -81.5496   28.4034  -76.0099 O.2       0 UNK        -0.5240 
      4 N         -82.8820   28.7526  -74.2174 N.am      1 UNK        -0.4739 
      5 CA        -82.1167   27.9904  -73.2233 C.3       1 UNK         0.0864 
      6 C6        -82.6308   28.3178  -71.7981 C.3       11 UNK        -0.0881 
      7 S7        -81.5052   27.8116  -70.4512 S.3       11 UNK        -0.2682 
      8 C8        -80.5689   29.3357  -70.1084 C.3       11 UNK         0.0289 
      9 C9        -79.2056   29.3188  -70.7834 C.ar      11 UNK        -0.0687 
     10 C10       -78.9869   30.0199  -71.9747 C.ar      11 UNK        -0.0823 
     11 C11       -77.7223   30.0147  -72.5743 C.ar      11 UNK        -0.0830 
     12 C12       -76.6746   29.3228  -71.9647 C.ar      11 UNK        -0.1021 
     13 C13       -76.8830   28.6087  -70.7830 C.ar      11 UNK        -0.0753 
     14 C14       -78.1511   28.6107  -70.1957 C.ar      11 UNK        -0.0933 
     15 C15       -75.7280   27.8509  -70.1465 C.3       11 UNK         0.0166 
     16 S16       -75.0314   26.6336  -71.3071 S.3       11 UNK        -0.2615 
     17 C17       -73.2491   26.7443  -70.9386 C.3       11 UNK        -0.0865 
     18 CA        -72.5564   27.9966  -71.5454 C.3       10 UNK         0.0862 
     19 C         -71.0412   28.0143  -71.1792 C.2       10 UNK         0.5551 
     20 N         -70.1140   27.9858  -72.1303 N.am      10 UNK        -0.7319 
     21 O         -70.7010   28.0579  -69.9995 O.2       10 UNK        -0.5018 
     22 N         -72.8443   28.1590  -72.9800 N.am      10 UNK        -0.4509 
     23 C         -72.6692   29.2948  -73.6701 C.2       10 UNK         0.4899 
     24 O         -72.3624   30.3690  -73.1511 O.2       10 UNK        -0.4839 
     25 CA        -72.8563   29.2052  -75.1984 C.3       9 UNK         0.0222 
     26 CB        -72.1424   30.3403  -75.9619 C.3       9 UNK        -0.1966 
     27 N         -72.4863   27.8905  -75.7423 N.am      9 UNK        -0.4218 
     28 C         -71.2897   27.2889  -75.6554 C.2       9 UNK         0.5020 
     29 O         -70.2927   27.8235  -75.1677 O.2       9 UNK        -0.5274 
     30 CA        -71.1829   25.8287  -76.1219 C.3       8 UNK         0.0270 
     31 CB        -71.0645   24.8972  -74.9013 C.3       8 UNK        -0.1976 
     32 N         -72.3205   25.3843  -76.9373 N.am      8 UNK        -0.4313 
     33 C         -72.2063   24.8363  -78.1545 C.2       8 UNK         0.5041 
     34 O         -71.1421   24.7471  -78.7693 O.2       8 UNK        -0.5577 
     35 CA        -73.4759   24.2481  -78.7927 C.3       7 UNK         0.0284 
     36 CB        -73.7316   22.8238  -78.2736 C.3       7 UNK        -0.1958 
     37 N         -74.6804   25.0610  -78.6112 N.am      7 UNK        -0.4454 
     38 C         -74.9203   26.1983  -79.2797 C.2       7 UNK         0.5089 
     39 O         -74.1046   26.7441  -80.0231 O.2       7 UNK        -0.5125 
     40 CA        -76.3169   26.8169  -79.1139 C.3       6 UNK         0.0408 
     41 CB        -77.3603   26.0413  -79.9347 C.3       6 UNK        -0.1791 
     42 N         -76.7249   26.8543  -77.7116 N.am      6 UNK        -0.4762 
     43 C         -76.3596   27.8153  -76.8514 C.2       6 UNK         0.5007 
     44 O         -75.6893   28.7960  -77.1730 O.2       6 UNK        -0.5032 
     45 CA        -76.7725   27.6244  -75.3761 C.3       5 UNK         0.0783 
     46 C46       -78.1785   28.2089  -75.0863 C.3       11 UNK        -0.0857 
     47 S47       -78.3642   30.0170  -75.2994 S.3       11 UNK        -0.2512 
     48 C48       -77.4710   30.7437  -73.8857 C.3       11 UNK         0.0225 
     49 N         -76.7012   26.2107  -74.9817 N.am      5 UNK        -0.4615 
     50 C         -75.5726   25.4867  -74.9266 C.2       4 UNK         0.5053 
     51 O         -74.4586   25.9620  -75.1389 O.2       4 UNK        -0.5105 
     52 CA        -75.6785   23.9736  -74.6526 C.3       4 UNK         0.0263 
     53 CB        -75.3856   23.6591  -73.1796 C.3       4 UNK        -0.1981 
     54 N         -76.9643   23.3840  -75.0240 N.am      4 UNK        -0.4224 
     55 C         -77.4729   23.3477  -76.2636 C.2       3 UNK         0.4895 
     56 O         -76.8689   23.7466  -77.2604 O.2       3 UNK        -0.5091 
     57 CA        -78.9262   22.8493  -76.4003 C.3       3 UNK         0.0250 
     58 CB        -78.9465   21.3504  -76.7378 C.3       3 UNK        -0.1996 
     59 N         -79.7684   23.0997  -75.2172 N.am      3 UNK        -0.4254 
     60 C         -79.9700   24.3074  -74.6688 C.2       2 UNK         0.5004 
     61 O         -79.4497   25.3353  -75.1041 O.2       2 UNK        -0.5226 
     62 CA        -80.8174   24.3699  -73.3875 C.3       2 UNK         0.0269 
     63 CB        -80.0566   23.7388  -72.2079 C.3       2 UNK        -0.1926 
     64 N         -81.1075   25.7645  -73.0504 N.am      2 UNK        -0.4687 
     65 C         -82.1388   26.4719  -73.5242 C.2       1 UNK         0.5165 
     66 O         -83.0781   25.9721  -74.1512 O.2       1 UNK        -0.5079 
     67 H67       -83.9090   29.0564  -77.1872 H         1 UNK         0.0900 
     68 H68       -84.3718   30.0653  -75.8152 H         1 UNK         0.0900 
     69 H69       -83.0061   30.5314  -76.8309 H         1 UNK         0.0900 
     70 H70       -83.7499   29.1484  -73.8862 H         1 UNK         0.2959 
     71 H71       -81.0801   28.3258  -73.3052 H         1 UNK         0.1079 
     72 H72       -83.6002   27.8454  -71.6267 H         1 UNK         0.0837 
     73 H73       -82.8145   29.3891  -71.7040 H         1 UNK         0.0837 
     74 H74       -80.4315   29.4197  -69.0293 H         1 UNK         0.0685 
     75 H75       -81.1376   30.2183  -70.4037 H         1 UNK         0.0685 
     76 H76       -79.7983   30.5621  -72.4410 H         1 UNK         0.1434 
     77 H77       -75.6922   29.3203  -72.4169 H         1 UNK         0.1329 
     78 H78       -78.3204   28.0651  -69.2774 H         1 UNK         0.1335 
     79 H79       -76.0456   27.3329  -69.2404 H         1 UNK         0.0680 
     80 H80       -74.9676   28.5706  -69.8428 H         1 UNK         0.0680 
     81 H81       -72.7777   25.8356  -71.3178 H         1 UNK         0.1032 
     82 H82       -73.1188   26.7187  -69.8548 H         1 UNK         0.1032 
     83 H83       -72.9794   28.8698  -71.0463 H         1 UNK         0.0461 
     84 H84       -70.3635   27.9703  -73.1123 H         1 UNK         0.3453 
     85 H85       -69.1423   28.0011  -71.8650 H         1 UNK         0.3453 
     86 H86       -73.1279   27.3259  -73.4767 H         1 UNK         0.2984 
     87 H87       -73.9255   29.3208  -75.3670 H         1 UNK         0.0554 
     88 H88       -72.5158   31.3166  -75.6510 H         1 UNK         0.0847 
     89 H89       -72.3093   30.2593  -77.0359 H         1 UNK         0.0847 
     90 H90       -71.0662   30.3336  -75.7868 H         1 UNK         0.0847 
     91 H91       -73.2647   27.3277  -76.0624 H         1 UNK         0.3141 
     92 H92       -70.2532   25.7601  -76.6902 H         1 UNK         0.0743 
     93 H93       -70.2219   25.1807  -74.2688 H         1 UNK         0.0784 
     94 H94       -71.9619   24.9262  -74.2817 H         1 UNK         0.0784 
     95 H95       -70.9035   23.8636  -75.2078 H         1 UNK         0.0784 
     96 H96       -73.2321   25.4202  -76.4898 H         1 UNK         0.3213 
     97 H97       -73.2896   24.1733  -79.8667 H         1 UNK         0.0855 
     98 H98       -73.9183   22.8087  -77.2009 H         1 UNK         0.0814 
     99 H99       -72.8707   22.1809  -78.4618 H         1 UNK         0.0814 
    100 H100      -74.5898   22.3686  -78.7685 H         1 UNK         0.0814 
    101 H101      -75.4325   24.6540  -78.0589 H         1 UNK         0.3105 
    102 H102      -76.2826   27.8366  -79.5040 H         1 UNK         0.0547 
    103 H103      -78.3424   26.5097  -79.8694 H         1 UNK         0.0837 
    104 H104      -77.0839   26.0162  -80.9896 H         1 UNK         0.0837 
    105 H105      -77.4600   25.0081  -79.6006 H         1 UNK         0.0837 
    106 H106      -77.2333   26.0533  -77.3599 H         1 UNK         0.3020 
    107 H107      -76.0482   28.1631  -74.7627 H         1 UNK         0.1245 
    108 H108      -78.4961   27.9397  -74.0784 H         1 UNK         0.0781 
    109 H109      -78.9120   27.7450  -75.7469 H         1 UNK         0.0781 
    110 H110      -77.7693   31.7875  -73.7793 H         1 UNK         0.0836 
    111 H111      -76.4058   30.7579  -74.1223 H         1 UNK         0.0836 
    112 H112      -77.5977   25.7493  -74.8519 H         1 UNK         0.3022 
    113 H113      -74.9096   23.4872  -75.2533 H         1 UNK         0.0747 
    114 H114      -75.3485   22.5843  -73.0021 H         1 UNK         0.0793 
    115 H115      -74.4196   24.0672  -72.8787 H         1 UNK         0.0793 
    116 H116      -76.1424   24.0833  -72.5186 H         1 UNK         0.0793 
    117 H117      -77.5365   23.0353  -74.2696 H         1 UNK         0.3047 
    118 H118      -79.3708   23.3943  -77.2356 H         1 UNK         0.0822 
    119 H119      -78.3454   21.1421  -77.6244 H         1 UNK         0.0807 
    120 H120      -79.9586   21.0037  -76.9476 H         1 UNK         0.0807 
    121 H121      -78.5453   20.7465  -75.9229 H         1 UNK         0.0807 
    122 H122      -80.2155   22.2940  -74.8028 H         1 UNK         0.2946 
    123 H123      -81.7490   23.8241  -73.5545 H         1 UNK         0.1144 
    124 H124      -80.6327   23.8096  -71.2849 H         1 UNK         0.0793 
    125 H125      -79.0954   24.2264  -72.0377 H         1 UNK         0.0793 
    126 H126      -79.8608   22.6799  -72.3810 H         1 UNK         0.0793 
    127 H127      -80.3866   26.2554  -72.5410 H         1 UNK         0.2896 
@<TRIPOS>BOND
     1    1    2 1    
     2    1   67 1    
     3    1   68 1    
     4    1   69 1    
     5    2    3 2    
     6    2    4 am   BACKBONE|DICT|INTERRES
     7    4    5 1    
     8    4   70 1    
     9    5    6 1    
    10    5   65 1    
    11    5   71 1    
    12    6    7 1    
    13    6   72 1    
    14    6   73 1    
    15    7    8 1    
    16    8    9 1    
    17    8   74 1    
    18    8   75 1    
    19    9   10 ar   
    20    9   14 ar   
    21   10   11 ar   
    22   10   76 1    
    23   11   12 ar   
    24   11   48 1    
    25   12   13 ar   
    26   12   77 1    
    27   13   14 ar   
    28   13   15 1    
    29   14   78 1    
    30   15   16 1    
    31   15   79 1    
    32   15   80 1    
    33   16   17 1    
    34   17   18 1    
    35   17   81 1    
    36   17   82 1    
    37   18   19 1    
    38   18   22 1    
    39   18   83 1    
    40   19   20 am   BACKBONE|DICT|INTERRES
    41   19   21 2    
    42   20   84 1    
    43   20   85 1    
    44   22   23 am   BACKBONE|DICT|INTERRES
    45   22   86 1    
    46   23   24 2    
    47   23   25 1    
    48   25   26 1    
    49   25   27 1    
    50   25   87 1    
    51   26   88 1    
    52   26   89 1    
    53   26   90 1    
    54   27   28 am   BACKBONE|DICT|INTERRES
    55   27   91 1    
    56   28   29 2    
    57   28   30 1    
    58   30   31 1    
    59   30   32 1    
    60   30   92 1    
    61   31   93 1    
    62   31   94 1    
    63   31   95 1    
    64   32   33 am   BACKBONE|DICT|INTERRES
    65   32   96 1    
    66   33   34 2    
    67   33   35 1    
    68   35   36 1    
    69   35   37 1    
    70   35   97 1    
    71   36   98 1    
    72   36   99 1    
    73   36  100 1    
    74   37   38 am   BACKBONE|DICT|INTERRES
    75   37  101 1    
    76   38   39 2    
    77   38   40 1    
    78   40   41 1    
    79   40   42 1    
    80   40  102 1    
    81   41  103 1    
    82   41  104 1    
    83   41  105 1    
    84   42   43 am   BACKBONE|DICT|INTERRES
    85   42  106 1    
    86   43   44 2    
    87   43   45 1    
    88   45   46 1    
    89   45   49 1    
    90   45  107 1    
    91   46   47 1    
    92   46  108 1    
    93   46  109 1    
    94   47   48 1    
    95   48  110 1    
    96   48  111 1    
    97   49   50 am   BACKBONE|DICT|INTERRES
    98   49  112 1    
    99   50   51 2    
   100   50   52 1    
   101   52   53 1    
   102   52   54 1    
   103   52  113 1    
   104   53  114 1    
   105   53  115 1    
   106   53  116 1    
   107   54   55 am   BACKBONE|DICT|INTERRES
   108   54  117 1    
   109   55   56 2    
   110   55   57 1    
   111   57   58 1    
   112   57   59 1    
   113   57  118 1    
   114   58  119 1    
   115   58  120 1    
   116   58  121 1    
   117   59   60 am   BACKBONE|DICT|INTERRES
   118   59  122 1    
   119   60   61 2    
   120   60   62 1    
   121   62   63 1    
   122   62   64 1    
   123   62  123 1    
   124   63  124 1    
   125   63  125 1    
   126   63  126 1    
   127   64   65 am   BACKBONE|DICT|INTERRES
   128   64  127 1    
   129   65   66 2    
@<TRIPOS>SUBSTRUCTURE
     1 UNK         1 GROUP             0       ****    0 ROOT    
