@<TRIPOS>MOLECULE
3R135
127   129    1
SMALL
USER_CHARGES


@<TRIPOS>ATOM
      1 CA        -76.6820   29.9945  -77.2719 C.3       0 UNK        -0.1998 
      2 C         -77.4123   29.5884  -76.0005 C.2       0 UNK         0.4909 
      3 O         -77.5303   30.4013  -75.0855 O.2       0 UNK        -0.5240 
      4 N         -77.8932   28.3410  -75.9522 N.am      1 UNK        -0.4739 
      5 CA        -78.6308   27.7020  -74.8590 C.3       1 UNK         0.0864 
      6 C6        -79.8251   28.5478  -74.3141 C.3       11 UNK        -0.0881 
      7 S7        -80.9642   27.6636  -73.1895 S.3       11 UNK        -0.2682 
      8 C8        -80.3582   28.1983  -71.5580 C.3       11 UNK         0.0289 
      9 C9        -78.9128   27.7874  -71.3077 C.ar      11 UNK        -0.0687 
     10 C10       -78.5541   26.4360  -71.3010 C.ar      11 UNK        -0.0823 
     11 C11       -77.2342   26.0475  -71.0513 C.ar      11 UNK        -0.0830 
     12 C12       -76.2717   27.0300  -70.7888 C.ar      11 UNK        -0.1021 
     13 C13       -76.6179   28.3845  -70.7893 C.ar      11 UNK        -0.0753 
     14 C14       -77.9380   28.7576  -71.0569 C.ar      11 UNK        -0.0933 
     15 C15       -75.5767   29.4431  -70.4599 C.3       11 UNK         0.0166 
     16 S16       -74.8675   30.1815  -71.9611 S.3       11 UNK        -0.2615 
     17 C17       -73.6552   31.3142  -71.2054 C.3       11 UNK        -0.0865 
     18 CA        -72.8449   32.1305  -72.2459 C.3       10 UNK         0.0862 
     19 C         -71.9214   33.1439  -71.5126 C.2       10 UNK         0.5551 
     20 N         -72.3671   34.3811  -71.3440 N.am      10 UNK        -0.7319 
     21 O         -70.8323   32.8021  -71.0550 O.2       10 UNK        -0.5018 
     22 N         -72.1197   31.2461  -73.1724 N.am      10 UNK        -0.4509 
     23 C         -71.3383   31.6381  -74.1888 C.2       10 UNK         0.4899 
     24 O         -71.1591   32.8123  -74.5140 O.2       10 UNK        -0.4839 
     25 CA        -70.6423   30.5255  -74.9935 C.3       9 UNK         0.0222 
     26 CB        -69.2871   30.1721  -74.3590 C.3       9 UNK        -0.1966 
     27 N         -71.4553   29.3118  -75.1226 N.am      9 UNK        -0.4218 
     28 C         -72.5552   29.2206  -75.8819 C.2       9 UNK         0.5020 
     29 O         -72.9979   30.1463  -76.5669 O.2       9 UNK        -0.5274 
     30 CA        -73.3064   27.8790  -75.8285 C.3       8 UNK         0.0270 
     31 CB        -74.3514   27.9027  -74.7018 C.3       8 UNK        -0.1976 
     32 N         -73.9883   27.5713  -77.0853 N.am      8 UNK        -0.4313 
     33 C         -73.3997   27.3200  -78.2597 C.2       8 UNK         0.5041 
     34 O         -72.1782   27.2958  -78.4267 O.2       8 UNK        -0.5577 
     35 CA        -74.3514   26.9892  -79.4271 C.3       7 UNK         0.0284 
     36 CB        -73.6233   26.9075  -80.7820 C.3       7 UNK        -0.1958 
     37 N         -75.0529   25.7254  -79.1874 N.am      7 UNK        -0.4454 
     38 C         -76.0848   25.5588  -78.3502 C.2       7 UNK         0.5089 
     39 O         -76.6187   26.4906  -77.7423 O.2       7 UNK        -0.5125 
     40 CA        -76.6053   24.1256  -78.1241 C.3       6 UNK         0.0408 
     41 CB        -75.8656   23.0333  -78.9313 C.3       6 UNK        -0.1791 
     42 N         -76.6316   23.7977  -76.6925 N.am      6 UNK        -0.4762 
     43 C         -75.5766   23.7315  -75.8635 C.2       6 UNK         0.5007 
     44 O         -74.4129   23.8995  -76.2304 O.2       6 UNK        -0.5032 
     45 CA        -75.8420   23.4164  -74.3766 C.3       5 UNK         0.0783 
     46 C46       -75.4546   24.6152  -73.4772 C.3       11 UNK        -0.0857 
     47 S47       -75.2647   24.1341  -71.7291 S.3       11 UNK        -0.2512 
     48 C48       -76.8902   24.5605  -71.0175 C.3       11 UNK         0.0225 
     49 N         -77.2286   23.0021  -74.1284 N.am      5 UNK        -0.4615 
     50 C         -77.6299   21.7278  -74.0480 C.2       4 UNK         0.5053 
     51 O         -76.8934   20.7717  -74.2918 O.2       4 UNK        -0.5105 
     52 CA        -79.0695   21.4456  -73.5898 C.3       4 UNK         0.0263 
     53 CB        -79.0826   21.1030  -72.0845 C.3       4 UNK        -0.1981 
     54 N         -80.0197   22.5264  -73.8853 N.am      4 UNK        -0.4224 
     55 C         -81.3538   22.3700  -73.8689 C.2       3 UNK         0.4895 
     56 O         -81.9160   21.3103  -73.5882 O.2       3 UNK        -0.5091 
     57 CA        -82.2260   23.5883  -74.2283 C.3       3 UNK         0.0250 
     58 CB        -82.6198   24.3534  -72.9546 C.3       3 UNK        -0.1996 
     59 N         -81.5937   24.5119  -75.1713 N.am      3 UNK        -0.4254 
     60 C         -81.2375   24.2067  -76.4270 C.2       2 UNK         0.5004 
     61 O         -81.4895   23.1262  -76.9609 O.2       2 UNK        -0.5226 
     62 CA        -80.4518   25.2619  -77.2293 C.3       2 UNK         0.0269 
     63 CB        -81.3125   25.8168  -78.3762 C.3       2 UNK        -0.1926 
     64 N         -79.9076   26.3909  -76.4648 N.am      2 UNK        -0.4687 
     65 C         -79.0839   26.3390  -75.4064 C.2       1 UNK         0.5165 
     66 O         -78.6986   25.2918  -74.8811 O.2       1 UNK        -0.5079 
     67 H67       -77.1251   30.9004  -77.6845 H         1 UNK         0.0900 
     68 H68       -76.7283   29.2201  -78.0369 H         1 UNK         0.0900 
     69 H69       -75.6348   30.1991  -77.0535 H         1 UNK         0.0900 
     70 H70       -77.6785   27.7079  -76.7216 H         1 UNK         0.2959 
     71 H71       -77.9263   27.5175  -74.0457 H         1 UNK         0.1079 
     72 H72       -80.4201   28.9351  -75.1427 H         1 UNK         0.0837 
     73 H73       -79.4526   29.4274  -73.7891 H         1 UNK         0.0837 
     74 H74       -80.4791   29.2793  -71.4718 H         1 UNK         0.0685 
     75 H75       -80.9902   27.7564  -70.7867 H         1 UNK         0.0685 
     76 H76       -79.3116   25.6872  -71.4885 H         1 UNK         0.1434 
     77 H77       -75.2524   26.7415  -70.5721 H         1 UNK         0.1329 
     78 H78       -78.2058   29.8054  -71.0556 H         1 UNK         0.1335 
     79 H79       -74.7762   29.0087  -69.8588 H         1 UNK         0.0680 
     80 H80       -76.0285   30.2274  -69.8504 H         1 UNK         0.0680 
     81 H81       -72.9825   30.7336  -70.5705 H         1 UNK         0.1032 
     82 H82       -74.1983   31.9872  -70.5386 H         1 UNK         0.1032 
     83 H83       -73.5519   32.6987  -72.8537 H         1 UNK         0.0461 
     84 H84       -73.2636   34.6665  -71.7068 H         1 UNK         0.3453 
     85 H85       -71.7900   35.0480  -70.8556 H         1 UNK         0.3453 
     86 H86       -72.2135   30.2584  -72.9933 H         1 UNK         0.2984 
     87 H87       -70.4526   30.9127  -75.9971 H         1 UNK         0.0554 
     88 H88       -68.7436   29.4435  -74.9608 H         1 UNK         0.0847 
     89 H89       -69.4027   29.7616  -73.3550 H         1 UNK         0.0847 
     90 H90       -68.6542   31.0569  -74.2762 H         1 UNK         0.0847 
     91 H91       -71.1600   28.5052  -74.5909 H         1 UNK         0.3141 
     92 H92       -72.5961   27.0716  -75.6385 H         1 UNK         0.0743 
     93 H93       -73.8762   27.8123  -73.7245 H         1 UNK         0.0784 
     94 H94       -74.9205   28.8328  -74.6987 H         1 UNK         0.0784 
     95 H95       -75.0660   27.0876  -74.7970 H         1 UNK         0.0784 
     96 H96       -74.9984   27.5000  -77.0549 H         1 UNK         0.3213 
     97 H97       -75.0844   27.7964  -79.4933 H         1 UNK         0.0855 
     98 H98       -73.1010   27.8401  -80.9997 H         1 UNK         0.0814 
     99 H99       -74.3235   26.7318  -81.5989 H         1 UNK         0.0814 
    100 H100      -72.8817   26.1077  -80.7970 H         1 UNK         0.0814 
    101 H101      -74.6466   24.9025  -79.6078 H         1 UNK         0.3105 
    102 H102      -77.6379   24.1236  -78.4678 H         1 UNK         0.0547 
    103 H103      -75.9493   23.2098  -80.0044 H         1 UNK         0.0837 
    104 H104      -74.8051   22.9752  -78.6846 H         1 UNK         0.0837 
    105 H105      -76.2979   22.0510  -78.7406 H         1 UNK         0.0837 
    106 H106      -77.5469   23.7152  -76.2729 H         1 UNK         0.3020 
    107 H107      -75.1669   22.5923  -74.1329 H         1 UNK         0.1245 
    108 H108      -76.1799   25.4252  -73.5687 H         1 UNK         0.0781 
    109 H109      -74.4911   25.0294  -73.7798 H         1 UNK         0.0781 
    110 H110      -76.9102   24.2275  -69.9792 H         1 UNK         0.0836 
    111 H111      -77.6547   23.9843  -71.5373 H         1 UNK         0.0836 
    112 H112      -77.8791   23.7661  -73.9891 H         1 UNK         0.3022 
    113 H113      -79.3915   20.5607  -74.1434 H         1 UNK         0.0747 
    114 H114      -80.0411   20.6878  -71.7738 H         1 UNK         0.0793 
    115 H115      -78.3237   20.3574  -71.8425 H         1 UNK         0.0793 
    116 H116      -78.8864   21.9798  -71.4684 H         1 UNK         0.0793 
    117 H117      -79.6445   23.4211  -74.1740 H         1 UNK         0.3047 
    118 H118      -83.1372   23.2116  -74.6979 H         1 UNK         0.0822 
    119 H119      -83.2856   25.1868  -73.1795 H         1 UNK         0.0807 
    120 H120      -81.7465   24.7512  -72.4362 H         1 UNK         0.0807 
    121 H121      -83.1439   23.7012  -72.2545 H         1 UNK         0.0807 
    122 H122      -81.3477   25.4260  -74.8180 H         1 UNK         0.2946 
    123 H123      -79.6063   24.7353  -77.6679 H         1 UNK         0.1144 
    124 H124      -81.7081   25.0118  -78.9974 H         1 UNK         0.0793 
    125 H125      -80.7321   26.4684  -79.0298 H         1 UNK         0.0793 
    126 H126      -82.1636   26.3865  -78.0008 H         1 UNK         0.0793 
    127 H127      -80.1655   27.3075  -76.8013 H         1 UNK         0.2896 
@<TRIPOS>BOND
     1    1    2 1    
     2    1   67 1    
     3    1   68 1    
     4    1   69 1    
     5    2    3 2    
     6    2    4 am   BACKBONE|DICT|INTERRES
     7    4    5 1    
     8    4   70 1    
     9    5    6 1    
    10    5   65 1    
    11    5   71 1    
    12    6    7 1    
    13    6   72 1    
    14    6   73 1    
    15    7    8 1    
    16    8    9 1    
    17    8   74 1    
    18    8   75 1    
    19    9   10 ar   
    20    9   14 ar   
    21   10   11 ar   
    22   10   76 1    
    23   11   12 ar   
    24   11   48 1    
    25   12   13 ar   
    26   12   77 1    
    27   13   14 ar   
    28   13   15 1    
    29   14   78 1    
    30   15   16 1    
    31   15   79 1    
    32   15   80 1    
    33   16   17 1    
    34   17   18 1    
    35   17   81 1    
    36   17   82 1    
    37   18   19 1    
    38   18   22 1    
    39   18   83 1    
    40   19   20 am   BACKBONE|DICT|INTERRES
    41   19   21 2    
    42   20   84 1    
    43   20   85 1    
    44   22   23 am   BACKBONE|DICT|INTERRES
    45   22   86 1    
    46   23   24 2    
    47   23   25 1    
    48   25   26 1    
    49   25   27 1    
    50   25   87 1    
    51   26   88 1    
    52   26   89 1    
    53   26   90 1    
    54   27   28 am   BACKBONE|DICT|INTERRES
    55   27   91 1    
    56   28   29 2    
    57   28   30 1    
    58   30   31 1    
    59   30   32 1    
    60   30   92 1    
    61   31   93 1    
    62   31   94 1    
    63   31   95 1    
    64   32   33 am   BACKBONE|DICT|INTERRES
    65   32   96 1    
    66   33   34 2    
    67   33   35 1    
    68   35   36 1    
    69   35   37 1    
    70   35   97 1    
    71   36   98 1    
    72   36   99 1    
    73   36  100 1    
    74   37   38 am   BACKBONE|DICT|INTERRES
    75   37  101 1    
    76   38   39 2    
    77   38   40 1    
    78   40   41 1    
    79   40   42 1    
    80   40  102 1    
    81   41  103 1    
    82   41  104 1    
    83   41  105 1    
    84   42   43 am   BACKBONE|DICT|INTERRES
    85   42  106 1    
    86   43   44 2    
    87   43   45 1    
    88   45   46 1    
    89   45   49 1    
    90   45  107 1    
    91   46   47 1    
    92   46  108 1    
    93   46  109 1    
    94   47   48 1    
    95   48  110 1    
    96   48  111 1    
    97   49   50 am   BACKBONE|DICT|INTERRES
    98   49  112 1    
    99   50   51 2    
   100   50   52 1    
   101   52   53 1    
   102   52   54 1    
   103   52  113 1    
   104   53  114 1    
   105   53  115 1    
   106   53  116 1    
   107   54   55 am   BACKBONE|DICT|INTERRES
   108   54  117 1    
   109   55   56 2    
   110   55   57 1    
   111   57   58 1    
   112   57   59 1    
   113   57  118 1    
   114   58  119 1    
   115   58  120 1    
   116   58  121 1    
   117   59   60 am   BACKBONE|DICT|INTERRES
   118   59  122 1    
   119   60   61 2    
   120   60   62 1    
   121   62   63 1    
   122   62   64 1    
   123   62  123 1    
   124   63  124 1    
   125   63  125 1    
   126   63  126 1    
   127   64   65 am   BACKBONE|DICT|INTERRES
   128   64  127 1    
   129   65   66 2    
@<TRIPOS>SUBSTRUCTURE
     1 UNK         1 GROUP             0       ****    0 ROOT    
