@<TRIPOS>MOLECULE
3R135
127   129    1
SMALL
USER_CHARGES


@<TRIPOS>ATOM
      1 CA        -80.8116   22.6515  -72.9100 C.3       0 UNK        -0.1998 
      2 C         -80.7735   24.1099  -73.3396 C.2       0 UNK         0.4909 
      3 O         -79.8959   24.4903  -74.1189 O.2       0 UNK        -0.5240 
      4 N         -81.7088   24.9287  -72.8370 N.am      1 UNK        -0.4739 
      5 CA        -81.8817   26.3454  -73.1842 C.3       1 UNK         0.0864 
      6 C6        -80.6766   27.2088  -72.7100 C.3       11 UNK        -0.0881 
      7 S7        -81.0634   28.9870  -72.5783 S.3       11 UNK        -0.2682 
      8 C8        -79.9812   29.4998  -71.2019 C.3       11 UNK         0.0289 
      9 C9        -78.5135   29.2363  -71.5092 C.ar      11 UNK        -0.0687 
     10 C10       -77.8384   28.1840  -70.8816 C.ar      11 UNK        -0.0823 
     11 C11       -76.5115   27.8903  -71.2156 C.ar      11 UNK        -0.0830 
     12 C12       -75.8549   28.6871  -72.1580 C.ar      11 UNK        -0.1021 
     13 C13       -76.5050   29.7650  -72.7648 C.ar      11 UNK        -0.0753 
     14 C14       -77.8370   30.0326  -72.4382 C.ar      11 UNK        -0.0933 
     15 C15       -75.7876   30.6066  -73.8115 C.3       11 UNK         0.0166 
     16 S16       -75.0217   32.1003  -73.1049 S.3       11 UNK        -0.2615 
     17 C17       -73.5468   31.4343  -72.2555 C.3       11 UNK        -0.0865 
     18 CA        -72.2522   31.5582  -73.1007 C.3       10 UNK         0.0862 
     19 C         -71.0124   31.1466  -72.2633 C.2       10 UNK         0.5551 
     20 N         -70.2319   32.1077  -71.7895 N.am      10 UNK        -0.7319 
     21 O         -70.7855   29.9673  -72.0015 O.2       10 UNK        -0.5018 
     22 N         -72.3404   30.7785  -74.3424 N.am      10 UNK        -0.4509 
     23 C         -71.5357   30.9246  -75.4013 C.2       10 UNK         0.4899 
     24 O         -70.6504   31.7784  -75.4790 O.2       10 UNK        -0.4839 
     25 CA        -71.7877   29.9548  -76.5723 C.3       9 UNK         0.0222 
     26 CB        -70.7323   30.0645  -77.6938 C.3       9 UNK        -0.1966 
     27 N         -71.9497   28.5632  -76.1321 N.am      9 UNK        -0.4218 
     28 C         -71.0382   27.7929  -75.5120 C.2       9 UNK         0.5020 
     29 O         -69.8977   28.1669  -75.2355 O.2       9 UNK        -0.5274 
     30 CA        -71.4534   26.3586  -75.1222 C.3       8 UNK         0.0270 
     31 CB        -71.6779   26.2692  -73.6033 C.3       8 UNK        -0.1976 
     32 N         -72.6512   25.8781  -75.8194 N.am      8 UNK        -0.4313 
     33 C         -72.6998   25.5755  -77.1274 C.2       8 UNK         0.5041 
     34 O         -71.7034   25.5520  -77.8512 O.2       8 UNK        -0.5577 
     35 CA        -74.0781   25.2813  -77.7593 C.3       7 UNK         0.0284 
     36 CB        -74.2539   23.7708  -77.9840 C.3       7 UNK        -0.1958 
     37 N         -75.2285   25.7830  -77.0018 N.am      7 UNK        -0.4454 
     38 C         -75.4328   27.0483  -76.6114 C.2       7 UNK         0.5089 
     39 O         -74.6972   27.9899  -76.9091 O.2       7 UNK        -0.5125 
     40 CA        -76.6047   27.2880  -75.6471 C.3       6 UNK         0.0408 
     41 CB        -77.8636   27.7130  -76.4100 C.3       6 UNK        -0.1791 
     42 N         -76.9054   26.1470  -74.7738 N.am      6 UNK        -0.4762 
     43 C         -76.0439   25.5932  -73.9043 C.2       6 UNK         0.5007 
     44 O         -74.8703   25.9450  -73.7858 O.2       6 UNK        -0.5032 
     45 CA        -76.5790   24.4187  -73.0680 C.3       5 UNK         0.0783 
     46 C46       -77.5269   24.9056  -71.9410 C.3       11 UNK        -0.0857 
     47 S47       -76.7186   25.1957  -70.3316 S.3       11 UNK        -0.2512 
     48 C48       -75.7546   26.7315  -70.5688 C.3       11 UNK         0.0225 
     49 N         -77.2303   23.4522  -73.9565 N.am      5 UNK        -0.4615 
     50 C         -76.5650   22.5608  -74.7019 C.2       4 UNK         0.5053 
     51 O         -75.3467   22.3976  -74.6383 O.2       4 UNK        -0.5105 
     52 CA        -77.3757   21.6990  -75.6868 C.3       4 UNK         0.0263 
     53 CB        -77.7404   20.3549  -75.0358 C.3       4 UNK        -0.1981 
     54 N         -78.5954   22.3165  -76.2189 N.am      4 UNK        -0.4224 
     55 C         -78.6636   23.4534  -76.9261 C.2       3 UNK         0.4895 
     56 O         -77.6972   24.1895  -77.1288 O.2       3 UNK        -0.5091 
     57 CA        -80.0303   23.8327  -77.5206 C.3       3 UNK         0.0250 
     58 CB        -81.1486   22.7927  -77.2888 C.3       3 UNK        -0.1996 
     59 N         -80.4483   25.1248  -76.9847 N.am      3 UNK        -0.4254 
     60 C         -81.1221   26.0648  -77.6633 C.2       2 UNK         0.5004 
     61 O         -81.4471   25.9418  -78.8457 O.2       2 UNK        -0.5226 
     62 CA        -81.4832   27.3691  -76.9144 C.3       2 UNK         0.0269 
     63 CB        -82.8172   27.9796  -77.3966 C.3       2 UNK        -0.1926 
     64 N         -81.4580   27.2438  -75.4488 N.am      2 UNK        -0.4687 
     65 C         -82.2382   26.4635  -74.6857 C.2       1 UNK         0.5165 
     66 O         -83.1844   25.8046  -75.1230 O.2       1 UNK        -0.5079 
     67 H67       -81.5971   22.4638  -72.1785 H         1 UNK         0.0900 
     68 H68       -80.9920   22.0116  -73.7727 H         1 UNK         0.0900 
     69 H69       -79.8600   22.3626  -72.4655 H         1 UNK         0.0900 
     70 H70       -82.4178   24.5482  -72.2254 H         1 UNK         0.2959 
     71 H71       -82.7673   26.6793  -72.6409 H         1 UNK         0.1079 
     72 H72       -79.7976   27.0735  -73.3420 H         1 UNK         0.0837 
     73 H73       -80.3751   26.8675  -71.7186 H         1 UNK         0.0837 
     74 H74       -80.2875   28.9831  -70.2908 H         1 UNK         0.0685 
     75 H75       -80.1266   30.5645  -71.0139 H         1 UNK         0.0685 
     76 H76       -78.3550   27.5739  -70.1536 H         1 UNK         0.1434 
     77 H77       -74.8349   28.4553  -72.4315 H         1 UNK         0.1329 
     78 H78       -78.3558   30.8488  -72.9222 H         1 UNK         0.1335 
     79 H79       -75.0327   30.0138  -74.3281 H         1 UNK         0.0680 
     80 H80       -76.5001   30.9131  -74.5789 H         1 UNK         0.0680 
     81 H81       -73.4376   31.9973  -71.3264 H         1 UNK         0.1032 
     82 H82       -73.7135   30.4022  -71.9501 H         1 UNK         0.1032 
     83 H83       -72.1413   32.6078  -73.3819 H         1 UNK         0.0461 
     84 H84       -70.4162   33.0774  -71.9952 H         1 UNK         0.3453 
     85 H85       -69.4321   31.8580  -71.2289 H         1 UNK         0.3453 
     86 H86       -73.0109   30.0269  -74.3502 H         1 UNK         0.2984 
     87 H87       -72.7476   30.2450  -77.0023 H         1 UNK         0.0554 
     88 H88       -70.7087   31.0724  -78.1097 H         1 UNK         0.0847 
     89 H89       -70.9531   29.3814  -78.5140 H         1 UNK         0.0847 
     90 H90       -69.7284   29.8406  -77.3319 H         1 UNK         0.0847 
     91 H91       -72.8644   28.1624  -76.3265 H         1 UNK         0.3141 
     92 H92       -70.6250   25.6965  -75.3827 H         1 UNK         0.0743 
     93 H93       -70.7677   26.5260  -73.0595 H         1 UNK         0.0784 
     94 H94       -72.4561   26.9566  -73.2695 H         1 UNK         0.0784 
     95 H95       -71.9651   25.2624  -73.2995 H         1 UNK         0.0784 
     96 H96       -73.5097   25.8578  -75.2754 H         1 UNK         0.3213 
     97 H97       -74.0951   25.7777  -78.7315 H         1 UNK         0.0855 
     98 H98       -74.2572   23.2229  -77.0411 H         1 UNK         0.0814 
     99 H99       -73.4428   23.3683  -78.5925 H         1 UNK         0.0814 
    100 H100      -75.1874   23.5510  -78.5028 H         1 UNK         0.0814 
    101 H101      -75.9477   25.1055  -76.7645 H         1 UNK         0.3105 
    102 H102      -76.3152   28.1128  -74.9994 H         1 UNK         0.0547 
    103 H103      -77.6636   28.5837  -77.0361 H         1 UNK         0.0837 
    104 H104      -78.2230   26.9185  -77.0635 H         1 UNK         0.0837 
    105 H105      -78.6611   27.9886  -75.7219 H         1 UNK         0.0837 
    106 H106      -77.8309   25.7478  -74.8430 H         1 UNK         0.3020 
    107 H107      -75.7195   23.9262  -72.6067 H         1 UNK         0.1245 
    108 H108      -78.2691   24.1341  -71.7361 H         1 UNK         0.0781 
    109 H109      -78.1079   25.7792  -72.2353 H         1 UNK         0.0781 
    110 H110      -75.3906   27.0617  -69.5952 H         1 UNK         0.0836 
    111 H111      -74.8658   26.4843  -71.1511 H         1 UNK         0.0836 
    112 H112      -78.2287   23.5739  -74.0994 H         1 UNK         0.3022 
    113 H113      -76.7237   21.4976  -76.5394 H         1 UNK         0.0747 
    114 H114      -76.8513   19.8514  -74.6529 H         1 UNK         0.0793 
    115 H115      -78.2076   19.6789  -75.7522 H         1 UNK         0.0793 
    116 H116      -78.4266   20.4857  -74.1980 H         1 UNK         0.0793 
    117 H117      -79.4487   21.7918  -76.0974 H         1 UNK         0.3047 
    118 H118      -79.8674   23.9225  -78.5966 H         1 UNK         0.0822 
    119 H119      -82.0650   23.0906  -77.7989 H         1 UNK         0.0807 
    120 H120      -81.3898   22.6809  -76.2312 H         1 UNK         0.0807 
    121 H121      -80.8747   21.8134  -77.6838 H         1 UNK         0.0807 
    122 H122      -80.2240   25.2788  -76.0075 H         1 UNK         0.2946 
    123 H123      -80.6979   28.0804  -77.1731 H         1 UNK         0.1144 
    124 H124      -82.7706   28.2341  -78.4562 H         1 UNK         0.0793 
    125 H125      -83.0527   28.8964  -76.8563 H         1 UNK         0.0793 
    126 H126      -83.6513   27.2895  -77.2681 H         1 UNK         0.0793 
    127 H127      -80.7406   27.7751  -74.9748 H         1 UNK         0.2896 
@<TRIPOS>BOND
     1    1    2 1    
     2    1   67 1    
     3    1   68 1    
     4    1   69 1    
     5    2    3 2    
     6    2    4 am   BACKBONE|DICT|INTERRES
     7    4    5 1    
     8    4   70 1    
     9    5    6 1    
    10    5   65 1    
    11    5   71 1    
    12    6    7 1    
    13    6   72 1    
    14    6   73 1    
    15    7    8 1    
    16    8    9 1    
    17    8   74 1    
    18    8   75 1    
    19    9   10 ar   
    20    9   14 ar   
    21   10   11 ar   
    22   10   76 1    
    23   11   12 ar   
    24   11   48 1    
    25   12   13 ar   
    26   12   77 1    
    27   13   14 ar   
    28   13   15 1    
    29   14   78 1    
    30   15   16 1    
    31   15   79 1    
    32   15   80 1    
    33   16   17 1    
    34   17   18 1    
    35   17   81 1    
    36   17   82 1    
    37   18   19 1    
    38   18   22 1    
    39   18   83 1    
    40   19   20 am   BACKBONE|DICT|INTERRES
    41   19   21 2    
    42   20   84 1    
    43   20   85 1    
    44   22   23 am   BACKBONE|DICT|INTERRES
    45   22   86 1    
    46   23   24 2    
    47   23   25 1    
    48   25   26 1    
    49   25   27 1    
    50   25   87 1    
    51   26   88 1    
    52   26   89 1    
    53   26   90 1    
    54   27   28 am   BACKBONE|DICT|INTERRES
    55   27   91 1    
    56   28   29 2    
    57   28   30 1    
    58   30   31 1    
    59   30   32 1    
    60   30   92 1    
    61   31   93 1    
    62   31   94 1    
    63   31   95 1    
    64   32   33 am   BACKBONE|DICT|INTERRES
    65   32   96 1    
    66   33   34 2    
    67   33   35 1    
    68   35   36 1    
    69   35   37 1    
    70   35   97 1    
    71   36   98 1    
    72   36   99 1    
    73   36  100 1    
    74   37   38 am   BACKBONE|DICT|INTERRES
    75   37  101 1    
    76   38   39 2    
    77   38   40 1    
    78   40   41 1    
    79   40   42 1    
    80   40  102 1    
    81   41  103 1    
    82   41  104 1    
    83   41  105 1    
    84   42   43 am   BACKBONE|DICT|INTERRES
    85   42  106 1    
    86   43   44 2    
    87   43   45 1    
    88   45   46 1    
    89   45   49 1    
    90   45  107 1    
    91   46   47 1    
    92   46  108 1    
    93   46  109 1    
    94   47   48 1    
    95   48  110 1    
    96   48  111 1    
    97   49   50 am   BACKBONE|DICT|INTERRES
    98   49  112 1    
    99   50   51 2    
   100   50   52 1    
   101   52   53 1    
   102   52   54 1    
   103   52  113 1    
   104   53  114 1    
   105   53  115 1    
   106   53  116 1    
   107   54   55 am   BACKBONE|DICT|INTERRES
   108   54  117 1    
   109   55   56 2    
   110   55   57 1    
   111   57   58 1    
   112   57   59 1    
   113   57  118 1    
   114   58  119 1    
   115   58  120 1    
   116   58  121 1    
   117   59   60 am   BACKBONE|DICT|INTERRES
   118   59  122 1    
   119   60   61 2    
   120   60   62 1    
   121   62   63 1    
   122   62   64 1    
   123   62  123 1    
   124   63  124 1    
   125   63  125 1    
   126   63  126 1    
   127   64   65 am   BACKBONE|DICT|INTERRES
   128   64  127 1    
   129   65   66 2    
@<TRIPOS>SUBSTRUCTURE
     1 UNK         1 GROUP             0       ****    0 ROOT    
