@<TRIPOS>MOLECULE
3R135
127   129    1
SMALL
USER_CHARGES


@<TRIPOS>ATOM
      1 CA        -84.9331   24.9653  -73.4984 C.3       0 UNK        -0.1998 
      2 C         -83.4328   25.1890  -73.3920 C.2       0 UNK         0.4909 
      3 O         -82.6676   24.2259  -73.4495 O.2       0 UNK        -0.5240 
      4 N         -83.0093   26.4549  -73.2529 N.am      1 UNK        -0.4739 
      5 CA        -81.6139   26.8971  -73.0903 C.3       1 UNK         0.0864 
      6 C6        -81.0162   26.4978  -71.7091 C.3       11 UNK        -0.0881 
      7 S7        -81.5807   27.6582  -70.4201 S.3       11 UNK        -0.2682 
      8 C8        -80.0102   28.1841  -69.6443 C.3       11 UNK         0.0289 
      9 C9        -78.9483   28.7162  -70.6093 C.ar      11 UNK        -0.0687 
     10 C10       -79.2756   29.5580  -71.6803 C.ar      11 UNK        -0.0823 
     11 C11       -78.2839   30.0450  -72.5414 C.ar      11 UNK        -0.0830 
     12 C12       -76.9482   29.7008  -72.3038 C.ar      11 UNK        -0.1021 
     13 C13       -76.6054   28.8703  -71.2339 C.ar      11 UNK        -0.0753 
     14 C14       -77.6084   28.3780  -70.3959 C.ar      11 UNK        -0.0933 
     15 C15       -75.1495   28.5156  -70.9808 C.3       11 UNK         0.0166 
     16 S16       -74.2746   29.8939  -70.1756 S.3       11 UNK        -0.2615 
     17 C17       -72.5628   29.2588  -70.1084 C.3       11 UNK        -0.0865 
     18 CA        -71.6172   29.9580  -71.1317 C.3       10 UNK         0.0862 
     19 C         -70.1158   29.5985  -70.9030 C.2       10 UNK         0.5551 
     20 N         -69.2976   29.4784  -71.9414 N.am      10 UNK        -0.7319 
     21 O         -69.6745   29.4614  -69.7644 O.2       10 UNK        -0.5018 
     22 N         -72.0869   29.8313  -72.5253 N.am      10 UNK        -0.4509 
     23 C         -72.2105   28.6881  -73.2115 C.2       10 UNK         0.4899 
     24 O         -71.8992   27.5835  -72.7607 O.2       10 UNK        -0.4839 
     25 CA        -72.8656   28.7886  -74.6033 C.3       9 UNK         0.0222 
     26 CB        -72.5349   30.0912  -75.3673 C.3       9 UNK        -0.1966 
     27 N         -72.6081   27.5972  -75.4199 N.am      9 UNK        -0.4218 
     28 C         -71.4226   27.1952  -75.9030 C.2       9 UNK         0.5020 
     29 O         -70.3906   27.8654  -75.8324 O.2       9 UNK        -0.5274 
     30 CA        -71.3440   25.8088  -76.5606 C.3       8 UNK         0.0270 
     31 CB        -70.7520   24.7824  -75.5751 C.3       8 UNK        -0.1976 
     32 N         -72.6261   25.3159  -77.0777 N.am      8 UNK        -0.4313 
     33 C         -72.7336   24.4553  -78.0985 C.2       8 UNK         0.5041 
     34 O         -71.7748   24.0365  -78.7499 O.2       8 UNK        -0.5577 
     35 CA        -74.1439   23.9572  -78.4466 C.3       7 UNK         0.0284 
     36 CB        -74.5963   22.8785  -77.4511 C.3       7 UNK        -0.1958 
     37 N         -75.1347   25.0319  -78.4914 N.am      7 UNK        -0.4454 
     38 C         -75.2391   25.9266  -79.4836 C.2       7 UNK         0.5089 
     39 O         -74.4915   25.9568  -80.4616 O.2       7 UNK        -0.5125 
     40 CA        -76.3826   26.9491  -79.3851 C.3       6 UNK         0.0408 
     41 CB        -77.5848   26.4922  -80.2276 C.3       6 UNK        -0.1791 
     42 N         -76.8115   27.1661  -78.0008 N.am      6 UNK        -0.4762 
     43 C         -76.2531   28.0758  -77.1890 C.2       6 UNK         0.5007 
     44 O         -75.3378   28.8252  -77.5301 O.2       6 UNK        -0.5032 
     45 CA        -76.7921   28.1533  -75.7483 C.3       5 UNK         0.0783 
     46 C46       -78.0759   29.0257  -75.6662 C.3       11 UNK        -0.0857 
     47 S47       -77.7046   30.7552  -75.2263 S.3       11 UNK        -0.2512 
     48 C48       -78.6744   30.9767  -73.6898 C.3       11 UNK         0.0225 
     49 N         -76.9666   26.8459  -75.1070 N.am      5 UNK        -0.4615 
     50 C         -76.0134   25.9230  -74.9101 C.2       4 UNK         0.5053 
     51 O         -74.8805   25.9861  -75.3908 O.2       4 UNK        -0.5105 
     52 CA        -76.3894   24.7251  -74.0276 C.3       4 UNK         0.0263 
     53 CB        -76.4764   25.1558  -72.5532 C.3       4 UNK        -0.1981 
     54 N         -77.6726   24.1708  -74.4540 N.am      4 UNK        -0.4224 
     55 C         -77.8346   23.0101  -75.1034 C.2       3 UNK         0.4895 
     56 O         -76.9387   22.1810  -75.2604 O.2       3 UNK        -0.5091 
     57 CA        -79.2264   22.7173  -75.7010 C.3       3 UNK         0.0250 
     58 CB        -80.0147   21.7679  -74.7848 C.3       3 UNK        -0.1996 
     59 N         -80.0389   23.9101  -75.9602 N.am      3 UNK        -0.4254 
     60 C         -79.7035   24.9227  -76.7738 C.2       2 UNK         0.5004 
     61 O         -78.6762   24.9551  -77.4511 O.2       2 UNK        -0.5226 
     62 CA        -80.6283   26.1523  -76.7698 C.3       2 UNK         0.0269 
     63 CB        -81.6809   26.0306  -77.8819 C.3       2 UNK        -0.1926 
     64 N         -81.3002   26.4207  -75.4901 N.am      2 UNK        -0.4687 
     65 C         -80.7126   26.5200  -74.2859 C.2       1 UNK         0.5165 
     66 O         -79.5072   26.3377  -74.1121 O.2       1 UNK        -0.5079 
     67 H67       -85.4896   25.9012  -73.4614 H         1 UNK         0.0900 
     68 H68       -85.1713   24.4647  -74.4358 H         1 UNK         0.0900 
     69 H69       -85.2766   24.3352  -72.6787 H         1 UNK         0.0900 
     70 H70       -83.6961   27.1958  -73.2193 H         1 UNK         0.2959 
     71 H71       -81.6397   27.9866  -73.1397 H         1 UNK         0.1079 
     72 H72       -79.9261   26.4941  -71.7114 H         1 UNK         0.0837 
     73 H73       -81.3032   25.4834  -71.4299 H         1 UNK         0.0837 
     74 H74       -80.2293   28.9599  -68.9095 H         1 UNK         0.0685 
     75 H75       -79.6175   27.3341  -69.0836 H         1 UNK         0.0685 
     76 H76       -80.3074   29.8398  -71.8384 H         1 UNK         0.1434 
     77 H77       -76.1665   30.0908  -72.9406 H         1 UNK         0.1329 
     78 H78       -77.3410   27.7398  -69.5647 H         1 UNK         0.1335 
     79 H79       -74.6734   28.2684  -71.9283 H         1 UNK         0.0680 
     80 H80       -75.0733   27.6245  -70.3557 H         1 UNK         0.0680 
     81 H81       -72.5567   28.1767  -70.2485 H         1 UNK         0.1032 
     82 H82       -72.2064   29.4245  -69.0902 H         1 UNK         0.1032 
     83 H83       -71.6635   31.0271  -70.9208 H         1 UNK         0.0461 
     84 H84       -69.6488   29.5800  -72.8803 H         1 UNK         0.3453 
     85 H85       -68.3269   29.2578  -71.7841 H         1 UNK         0.3453 
     86 H86       -72.3640   30.6948  -72.9684 H         1 UNK         0.2984 
     87 H87       -73.9373   28.7855  -74.4148 H         1 UNK         0.0554 
     88 H88       -72.9615   30.9642  -74.8726 H         1 UNK         0.0847 
     89 H89       -72.9503   30.0695  -76.3752 H         1 UNK         0.0847 
     90 H90       -71.4601   30.2544  -75.4548 H         1 UNK         0.0847 
     91 H91       -73.3938   26.9526  -75.4604 H         1 UNK         0.3141 
     92 H92       -70.6508   25.9180  -77.3981 H         1 UNK         0.0743 
     93 H93       -71.4210   24.6076  -74.7312 H         1 UNK         0.0784 
     94 H94       -70.5646   23.8241  -76.0601 H         1 UNK         0.0784 
     95 H95       -69.8001   25.1300  -75.1709 H         1 UNK         0.0784 
     96 H96       -73.4724   25.5910  -76.5867 H         1 UNK         0.3213 
     97 H97       -74.0978   23.4982  -79.4370 H         1 UNK         0.0855 
     98 H98       -74.6677   23.2677  -76.4350 H         1 UNK         0.0814 
     99 H99       -73.8915   22.0462  -77.4304 H         1 UNK         0.0814 
    100 H100      -75.5701   22.4703  -77.7226 H         1 UNK         0.0814 
    101 H101      -75.7904   25.0910  -77.7260 H         1 UNK         0.3105 
    102 H102      -76.0242   27.8908  -79.8070 H         1 UNK         0.0547 
    103 H103      -77.3110   26.4110  -81.2803 H         1 UNK         0.0837 
    104 H104      -77.9540   25.5152  -79.9149 H         1 UNK         0.0837 
    105 H105      -78.4104   27.2008  -80.1616 H         1 UNK         0.0837 
    106 H106      -77.5283   26.5391  -77.6457 H         1 UNK         0.3020 
    107 H107      -76.0156   28.6438  -75.1625 H         1 UNK         0.1245 
    108 H108      -78.7566   28.6387  -74.9110 H         1 UNK         0.0781 
    109 H109      -78.6472   29.0145  -76.5963 H         1 UNK         0.0781 
    110 H110      -79.7308   30.8550  -73.9341 H         1 UNK         0.0836 
    111 H111      -78.5553   32.0066  -73.3513 H         1 UNK         0.0836 
    112 H112      -77.8752   26.6926  -74.6737 H         1 UNK         0.3022 
    113 H113      -75.5970   23.9793  -74.1187 H         1 UNK         0.0747 
    114 H114      -76.6961   24.3055  -71.9077 H         1 UNK         0.0793 
    115 H115      -75.5316   25.5839  -72.2154 H         1 UNK         0.0793 
    116 H116      -77.2519   25.9059  -72.3897 H         1 UNK         0.0793 
    117 H117      -78.4743   24.7895  -74.3673 H         1 UNK         0.3047 
    118 H118      -79.0647   22.2185  -76.6586 H         1 UNK         0.0822 
    119 H119      -80.9582   21.4675  -75.2412 H         1 UNK         0.0807 
    120 H120      -80.2406   22.2321  -73.8237 H         1 UNK         0.0807 
    121 H121      -79.4488   20.8571  -74.5838 H         1 UNK         0.0807 
    122 H122      -80.8891   24.0016  -75.4196 H         1 UNK         0.2946 
    123 H123      -80.0022   27.0180  -76.9909 H         1 UNK         0.1144 
    124 H124      -81.2086   25.8542  -78.8496 H         1 UNK         0.0793 
    125 H125      -82.2695   26.9434  -77.9743 H         1 UNK         0.0793 
    126 H126      -82.3681   25.2038  -77.6984 H         1 UNK         0.0793 
    127 H127      -82.2978   26.5728  -75.5318 H         1 UNK         0.2896 
@<TRIPOS>BOND
     1    1    2 1    
     2    1   67 1    
     3    1   68 1    
     4    1   69 1    
     5    2    3 2    
     6    2    4 am   BACKBONE|DICT|INTERRES
     7    4    5 1    
     8    4   70 1    
     9    5    6 1    
    10    5   65 1    
    11    5   71 1    
    12    6    7 1    
    13    6   72 1    
    14    6   73 1    
    15    7    8 1    
    16    8    9 1    
    17    8   74 1    
    18    8   75 1    
    19    9   10 ar   
    20    9   14 ar   
    21   10   11 ar   
    22   10   76 1    
    23   11   12 ar   
    24   11   48 1    
    25   12   13 ar   
    26   12   77 1    
    27   13   14 ar   
    28   13   15 1    
    29   14   78 1    
    30   15   16 1    
    31   15   79 1    
    32   15   80 1    
    33   16   17 1    
    34   17   18 1    
    35   17   81 1    
    36   17   82 1    
    37   18   19 1    
    38   18   22 1    
    39   18   83 1    
    40   19   20 am   BACKBONE|DICT|INTERRES
    41   19   21 2    
    42   20   84 1    
    43   20   85 1    
    44   22   23 am   BACKBONE|DICT|INTERRES
    45   22   86 1    
    46   23   24 2    
    47   23   25 1    
    48   25   26 1    
    49   25   27 1    
    50   25   87 1    
    51   26   88 1    
    52   26   89 1    
    53   26   90 1    
    54   27   28 am   BACKBONE|DICT|INTERRES
    55   27   91 1    
    56   28   29 2    
    57   28   30 1    
    58   30   31 1    
    59   30   32 1    
    60   30   92 1    
    61   31   93 1    
    62   31   94 1    
    63   31   95 1    
    64   32   33 am   BACKBONE|DICT|INTERRES
    65   32   96 1    
    66   33   34 2    
    67   33   35 1    
    68   35   36 1    
    69   35   37 1    
    70   35   97 1    
    71   36   98 1    
    72   36   99 1    
    73   36  100 1    
    74   37   38 am   BACKBONE|DICT|INTERRES
    75   37  101 1    
    76   38   39 2    
    77   38   40 1    
    78   40   41 1    
    79   40   42 1    
    80   40  102 1    
    81   41  103 1    
    82   41  104 1    
    83   41  105 1    
    84   42   43 am   BACKBONE|DICT|INTERRES
    85   42  106 1    
    86   43   44 2    
    87   43   45 1    
    88   45   46 1    
    89   45   49 1    
    90   45  107 1    
    91   46   47 1    
    92   46  108 1    
    93   46  109 1    
    94   47   48 1    
    95   48  110 1    
    96   48  111 1    
    97   49   50 am   BACKBONE|DICT|INTERRES
    98   49  112 1    
    99   50   51 2    
   100   50   52 1    
   101   52   53 1    
   102   52   54 1    
   103   52  113 1    
   104   53  114 1    
   105   53  115 1    
   106   53  116 1    
   107   54   55 am   BACKBONE|DICT|INTERRES
   108   54  117 1    
   109   55   56 2    
   110   55   57 1    
   111   57   58 1    
   112   57   59 1    
   113   57  118 1    
   114   58  119 1    
   115   58  120 1    
   116   58  121 1    
   117   59   60 am   BACKBONE|DICT|INTERRES
   118   59  122 1    
   119   60   61 2    
   120   60   62 1    
   121   62   63 1    
   122   62   64 1    
   123   62  123 1    
   124   63  124 1    
   125   63  125 1    
   126   63  126 1    
   127   64   65 am   BACKBONE|DICT|INTERRES
   128   64  127 1    
   129   65   66 2    
@<TRIPOS>SUBSTRUCTURE
     1 UNK         1 GROUP             0       ****    0 ROOT    
