@<TRIPOS>MOLECULE
3R135
127   129    1
SMALL
USER_CHARGES


@<TRIPOS>ATOM
      1 CA        -81.9769   29.2339  -76.1027 C.3       0 UNK        -0.1998 
      2 C         -82.2809   28.6151  -74.7464 C.2       0 UNK         0.4909 
      3 O         -83.4126   28.1943  -74.5068 O.2       0 UNK        -0.5240 
      4 N         -81.2737   28.5586  -73.8638 N.am      1 UNK        -0.4739 
      5 CA        -81.3248   27.9613  -72.5209 C.3       1 UNK         0.0864 
      6 C6        -82.2820   28.7116  -71.5524 C.3       11 UNK        -0.0881 
      7 S7        -81.6165   28.7900  -69.8539 S.3       11 UNK        -0.2682 
      8 C8        -80.7436   30.3919  -69.8652 C.3       11 UNK         0.0289 
      9 C9        -79.4403   30.3283  -70.6519 C.ar      11 UNK        -0.0687 
     10 C10       -79.4144   30.6676  -72.0085 C.ar      11 UNK        -0.0823 
     11 C11       -78.2292   30.5846  -72.7468 C.ar      11 UNK        -0.0830 
     12 C12       -77.0464   30.2239  -72.0905 C.ar      11 UNK        -0.1021 
     13 C13       -77.0560   29.8827  -70.7353 C.ar      11 UNK        -0.0753 
     14 C14       -78.2573   29.9310  -70.0222 C.ar      11 UNK        -0.0933 
     15 C15       -75.7658   29.4772  -70.0375 C.3       11 UNK         0.0166 
     16 S16       -75.5708   27.6683  -69.9456 S.3       11 UNK        -0.2615 
     17 C17       -75.1159   27.2529  -71.6634 C.3       11 UNK        -0.0865 
     18 CA        -73.5834   27.3407  -71.9198 C.3       10 UNK         0.0862 
     19 C         -72.8245   26.0221  -71.6077 C.2       10 UNK         0.5551 
     20 N         -72.9774   25.4914  -70.4031 N.am      10 UNK        -0.7319 
     21 O         -72.1031   25.4725  -72.4376 O.2       10 UNK        -0.5018 
     22 N         -73.2994   27.8115  -73.2784 N.am      10 UNK        -0.4509 
     23 C         -73.1732   29.0898  -73.6532 C.2       10 UNK         0.4899 
     24 O         -73.3161   30.0386  -72.8816 O.2       10 UNK        -0.4839 
     25 CA        -72.8802   29.3692  -75.1442 C.3       9 UNK         0.0222 
     26 CB        -71.9645   30.5966  -75.3426 C.3       9 UNK        -0.1966 
     27 N         -72.3866   28.2065  -75.9037 N.am      9 UNK        -0.4218 
     28 C         -71.2261   27.5609  -75.7059 C.2       9 UNK         0.5020 
     29 O         -70.4139   27.8865  -74.8385 O.2       9 UNK        -0.5274 
     30 CA        -70.8948   26.3644  -76.6148 C.3       8 UNK         0.0270 
     31 CB        -70.0945   25.2766  -75.8667 C.3       8 UNK        -0.1976 
     32 N         -72.0679   25.7471  -77.2465 N.am      8 UNK        -0.4313 
     33 C         -72.0188   25.1522  -78.4489 C.2       8 UNK         0.5041 
     34 O         -71.0548   25.2340  -79.2125 O.2       8 UNK        -0.5577 
     35 CA        -73.2090   24.2718  -78.8624 C.3       7 UNK         0.0284 
     36 CB        -73.2277   22.9691  -78.0460 C.3       7 UNK        -0.1958 
     37 N         -74.5009   24.9439  -78.7524 N.am      7 UNK        -0.4454 
     38 C         -74.9295   25.9117  -79.5734 C.2       7 UNK         0.5089 
     39 O         -74.2785   26.3503  -80.5222 O.2       7 UNK        -0.5125 
     40 CA        -76.3234   26.4978  -79.2790 C.3       6 UNK         0.0408 
     41 CB        -77.4264   25.6421  -79.9225 C.3       6 UNK        -0.1791 
     42 N         -76.5858   26.6481  -77.8448 N.am      6 UNK        -0.4762 
     43 C         -75.8935   27.4695  -77.0426 C.2       6 UNK         0.5007 
     44 O         -74.9812   28.1964  -77.4363 O.2       6 UNK        -0.5032 
     45 CA        -76.2225   27.4151  -75.5377 C.3       5 UNK         0.0783 
     46 C46       -77.4365   28.3025  -75.1547 C.3       11 UNK        -0.0857 
     47 S47       -76.9945   30.0764  -75.2545 S.3       11 UNK        -0.2512 
     48 C48       -78.2583   30.9194  -74.2380 C.3       11 UNK         0.0225 
     49 N         -76.3297   26.0261  -75.0768 N.am      5 UNK        -0.4615 
     50 C         -75.2723   25.1993  -74.9908 C.2       4 UNK         0.5053 
     51 O         -74.1157   25.5583  -75.2189 O.2       4 UNK        -0.5105 
     52 CA        -75.5306   23.7239  -74.6282 C.3       4 UNK         0.0263 
     53 CB        -75.4486   23.5153  -73.1090 C.3       4 UNK        -0.1981 
     54 N         -76.8125   23.2122  -75.1116 N.am      4 UNK        -0.4224 
     55 C         -77.1904   23.1499  -76.3964 C.2       3 UNK         0.4895 
     56 O         -76.4515   23.4324  -77.3374 O.2       3 UNK        -0.5091 
     57 CA        -78.6585   22.7731  -76.6776 C.3       3 UNK         0.0250 
     58 CB        -78.7700   21.2819  -77.0312 C.3       3 UNK        -0.1996 
     59 N         -79.5804   23.0867  -75.5755 N.am      3 UNK        -0.4254 
     60 C         -79.7484   24.3060  -75.0444 C.2       2 UNK         0.5004 
     61 O         -79.1579   25.3148  -75.4518 O.2       2 UNK        -0.5226 
     62 CA        -80.6566   24.4057  -73.8109 C.3       2 UNK         0.0269 
     63 CB        -80.0711   23.6082  -72.6259 C.3       2 UNK        -0.1926 
     64 N         -80.7365   25.8205  -73.4791 N.am      2 UNK        -0.4687 
     65 C         -81.5228   26.4320  -72.5901 C.2       1 UNK         0.5165 
     66 O         -82.3507   25.8529  -71.8843 O.2       1 UNK        -0.5079 
     67 H67       -82.5595   30.1447  -76.2381 H         1 UNK         0.0900 
     68 H68       -80.9221   29.4847  -76.2130 H         1 UNK         0.0900 
     69 H69       -82.2418   28.5386  -76.8989 H         1 UNK         0.0900 
     70 H70       -80.3701   28.9154  -74.1360 H         1 UNK         0.2959 
     71 H71       -80.3099   28.0721  -72.1370 H         1 UNK         0.1079 
     72 H72       -82.4483   29.7335  -71.8957 H         1 UNK         0.0837 
     73 H73       -83.2741   28.2569  -71.5340 H         1 UNK         0.0837 
     74 H74       -80.5329   30.6799  -68.8342 H         1 UNK         0.0685 
     75 H75       -81.3972   31.1686  -70.2654 H         1 UNK         0.0685 
     76 H76       -80.3291   30.9786  -72.4947 H         1 UNK         0.1434 
     77 H77       -76.1117   30.1986  -72.6331 H         1 UNK         0.1329 
     78 H78       -78.2697   29.6628  -68.9744 H         1 UNK         0.1335 
     79 H79       -75.7592   29.8811  -69.0240 H         1 UNK         0.0680 
     80 H80       -74.9016   29.9128  -70.5418 H         1 UNK         0.0680 
     81 H81       -75.6599   27.9161  -72.3333 H         1 UNK         0.1032 
     82 H82       -75.4970   26.2580  -71.8944 H         1 UNK         0.1032 
     83 H83       -73.1502   28.0755  -71.2384 H         1 UNK         0.0461 
     84 H84       -72.4933   24.6377  -70.1741 H         1 UNK         0.3453 
     85 H85       -73.5789   25.9312  -69.7228 H         1 UNK         0.3453 
     86 H86       -73.1268   27.0740  -73.9531 H         1 UNK         0.2984 
     87 H87       -73.8422   29.6296  -75.5841 H         1 UNK         0.0554 
     88 H88       -72.4204   31.4958  -74.9266 H         1 UNK         0.0847 
     89 H89       -71.7823   30.7895  -76.3997 H         1 UNK         0.0847 
     90 H90       -70.9993   30.4692  -74.8520 H         1 UNK         0.0847 
     91 H91       -73.0012   27.8903  -76.6461 H         1 UNK         0.3141 
     92 H92       -70.2494   26.7802  -77.3913 H         1 UNK         0.0743 
     93 H93       -69.1741   25.6793  -75.4419 H         1 UNK         0.0784 
     94 H94       -70.6753   24.8514  -75.0468 H         1 UNK         0.0784 
     95 H95       -69.8063   24.4624  -76.5317 H         1 UNK         0.0784 
     96 H96       -72.8869   25.6256  -76.6524 H         1 UNK         0.3213 
     97 H97       -73.0672   23.9999  -79.9109 H         1 UNK         0.0855 
     98 H98       -73.3686   23.1600  -76.9827 H         1 UNK         0.0814 
     99 H99       -72.2880   22.4264  -78.1570 H         1 UNK         0.0814 
    100 H100      -74.0268   22.3048  -78.3759 H         1 UNK         0.0814 
    101 H101      -75.1519   24.5793  -78.0608 H         1 UNK         0.3105 
    102 H102      -76.3647   27.4923  -79.7285 H         1 UNK         0.0547 
    103 H103      -77.4483   24.6311  -79.5155 H         1 UNK         0.0837 
    104 H104      -77.2704   25.5543  -80.9985 H         1 UNK         0.0837 
    105 H105      -78.4110   26.0855  -79.7745 H         1 UNK         0.0837 
    106 H106      -77.2932   26.0515  -77.4382 H         1 UNK         0.3020 
    107 H107      -75.3609   27.8331  -75.0223 H         1 UNK         0.1245 
    108 H108      -77.7455   28.0826  -74.1318 H         1 UNK         0.0781 
    109 H109      -78.3000   28.0979  -75.7905 H         1 UNK         0.0781 
    110 H110      -79.2397   30.7020  -74.6599 H         1 UNK         0.0836 
    111 H111      -78.1151   31.9954  -74.3443 H         1 UNK         0.0836 
    112 H112      -77.2684   25.6582  -74.9591 H         1 UNK         0.3022 
    113 H113      -74.7431   23.1290  -75.0931 H         1 UNK         0.0747 
    114 H114      -76.2323   24.0590  -72.5805 H         1 UNK         0.0793 
    115 H115      -75.5402   22.4606  -72.8490 H         1 UNK         0.0793 
    116 H116      -74.4885   23.8553  -72.7206 H         1 UNK         0.0793 
    117 H117      -77.4858   22.9441  -74.4100 H         1 UNK         0.3047 
    118 H118      -78.9764   23.3559  -77.5447 H         1 UNK         0.0822 
    119 H119      -79.7840   21.0195  -77.3333 H         1 UNK         0.0807 
    120 H120      -78.4928   20.6447  -76.1904 H         1 UNK         0.0807 
    121 H121      -78.1112   21.0282  -77.8633 H         1 UNK         0.0807 
    122 H122      -80.0964   22.3103  -75.1860 H         1 UNK         0.2946 
    123 H123      -81.6520   24.0380  -74.0685 H         1 UNK         0.1144 
    124 H124      -80.6999   23.6886  -71.7392 H         1 UNK         0.0793 
    125 H125      -79.0742   23.9600  -72.3569 H         1 UNK         0.0793 
    126 H126      -79.9935   22.5456  -72.8579 H         1 UNK         0.0793 
    127 H127      -80.1291   26.3818  -74.0651 H         1 UNK         0.2896 
@<TRIPOS>BOND
     1    1    2 1    
     2    1   67 1    
     3    1   68 1    
     4    1   69 1    
     5    2    3 2    
     6    2    4 am   BACKBONE|DICT|INTERRES
     7    4    5 1    
     8    4   70 1    
     9    5    6 1    
    10    5   65 1    
    11    5   71 1    
    12    6    7 1    
    13    6   72 1    
    14    6   73 1    
    15    7    8 1    
    16    8    9 1    
    17    8   74 1    
    18    8   75 1    
    19    9   10 ar   
    20    9   14 ar   
    21   10   11 ar   
    22   10   76 1    
    23   11   12 ar   
    24   11   48 1    
    25   12   13 ar   
    26   12   77 1    
    27   13   14 ar   
    28   13   15 1    
    29   14   78 1    
    30   15   16 1    
    31   15   79 1    
    32   15   80 1    
    33   16   17 1    
    34   17   18 1    
    35   17   81 1    
    36   17   82 1    
    37   18   19 1    
    38   18   22 1    
    39   18   83 1    
    40   19   20 am   BACKBONE|DICT|INTERRES
    41   19   21 2    
    42   20   84 1    
    43   20   85 1    
    44   22   23 am   BACKBONE|DICT|INTERRES
    45   22   86 1    
    46   23   24 2    
    47   23   25 1    
    48   25   26 1    
    49   25   27 1    
    50   25   87 1    
    51   26   88 1    
    52   26   89 1    
    53   26   90 1    
    54   27   28 am   BACKBONE|DICT|INTERRES
    55   27   91 1    
    56   28   29 2    
    57   28   30 1    
    58   30   31 1    
    59   30   32 1    
    60   30   92 1    
    61   31   93 1    
    62   31   94 1    
    63   31   95 1    
    64   32   33 am   BACKBONE|DICT|INTERRES
    65   32   96 1    
    66   33   34 2    
    67   33   35 1    
    68   35   36 1    
    69   35   37 1    
    70   35   97 1    
    71   36   98 1    
    72   36   99 1    
    73   36  100 1    
    74   37   38 am   BACKBONE|DICT|INTERRES
    75   37  101 1    
    76   38   39 2    
    77   38   40 1    
    78   40   41 1    
    79   40   42 1    
    80   40  102 1    
    81   41  103 1    
    82   41  104 1    
    83   41  105 1    
    84   42   43 am   BACKBONE|DICT|INTERRES
    85   42  106 1    
    86   43   44 2    
    87   43   45 1    
    88   45   46 1    
    89   45   49 1    
    90   45  107 1    
    91   46   47 1    
    92   46  108 1    
    93   46  109 1    
    94   47   48 1    
    95   48  110 1    
    96   48  111 1    
    97   49   50 am   BACKBONE|DICT|INTERRES
    98   49  112 1    
    99   50   51 2    
   100   50   52 1    
   101   52   53 1    
   102   52   54 1    
   103   52  113 1    
   104   53  114 1    
   105   53  115 1    
   106   53  116 1    
   107   54   55 am   BACKBONE|DICT|INTERRES
   108   54  117 1    
   109   55   56 2    
   110   55   57 1    
   111   57   58 1    
   112   57   59 1    
   113   57  118 1    
   114   58  119 1    
   115   58  120 1    
   116   58  121 1    
   117   59   60 am   BACKBONE|DICT|INTERRES
   118   59  122 1    
   119   60   61 2    
   120   60   62 1    
   121   62   63 1    
   122   62   64 1    
   123   62  123 1    
   124   63  124 1    
   125   63  125 1    
   126   63  126 1    
   127   64   65 am   BACKBONE|DICT|INTERRES
   128   64  127 1    
   129   65   66 2    
@<TRIPOS>SUBSTRUCTURE
     1 UNK         1 GROUP             0       ****    0 ROOT    
