@<TRIPOS>MOLECULE
3R135
127   129    1
SMALL
USER_CHARGES


@<TRIPOS>ATOM
      1 CA        -77.8596   25.7834  -68.2187 C.3       0 UNK        -0.1998 
      2 C         -78.6107   26.4821  -69.3408 C.2       0 UNK         0.4909 
      3 O         -78.0356   26.7320  -70.3992 O.2       0 UNK        -0.5240 
      4 N         -79.9039   26.7740  -69.1325 N.am      1 UNK        -0.4739 
      5 CA        -80.7820   27.5465  -70.0318 C.3       1 UNK         0.0864 
      6 C6        -80.2631   29.0033  -70.1990 C.3       11 UNK        -0.0881 
      7 S7        -81.5745   30.2066  -70.6109 S.3       11 UNK        -0.2682 
      8 C8        -80.6763   31.4242  -71.6317 C.3       11 UNK         0.0289 
      9 C9        -79.9342   30.8000  -72.8088 C.ar      11 UNK        -0.0687 
     10 C10       -80.6221   30.0546  -73.7727 C.ar      11 UNK        -0.0823 
     11 C11       -79.9397   29.4695  -74.8449 C.ar      11 UNK        -0.0830 
     12 C12       -78.5634   29.6753  -74.9653 C.ar      11 UNK        -0.1021 
     13 C13       -77.8572   30.3899  -73.9948 C.ar      11 UNK        -0.0753 
     14 C14       -78.5488   30.9569  -72.9217 C.ar      11 UNK        -0.0933 
     15 C15       -76.3470   30.5372  -74.1085 C.3       11 UNK         0.0166 
     16 S16       -75.5181   28.9179  -74.1837 S.3       11 UNK        -0.2615 
     17 C17       -75.6660   28.3065  -72.4652 C.3       11 UNK        -0.0865 
     18 CA        -74.2785   27.9651  -71.8569 C.3       10 UNK         0.0862 
     19 C         -74.3709   27.5870  -70.3492 C.2       10 UNK         0.5551 
     20 N         -73.8538   26.4442  -69.9152 N.am      10 UNK        -0.7319 
     21 O         -74.8975   28.3603  -69.5532 O.2       10 UNK        -0.5018 
     22 N         -73.5554   27.0112  -72.7145 N.am      10 UNK        -0.4509 
     23 C         -72.2264   26.8662  -72.7706 C.2       10 UNK         0.4899 
     24 O         -71.4399   27.3544  -71.9591 O.2       10 UNK        -0.4839 
     25 CA        -71.6826   26.1162  -73.9995 C.3       9 UNK         0.0222 
     26 CB        -71.8705   24.5958  -73.8711 C.3       9 UNK        -0.1966 
     27 N         -72.3058   26.6099  -75.2342 N.am      9 UNK        -0.4218 
     28 C         -72.0697   27.8269  -75.7532 C.2       9 UNK         0.5020 
     29 O         -71.2136   28.6011  -75.3190 O.2       9 UNK        -0.5274 
     30 CA        -72.9411   28.2440  -76.9511 C.3       8 UNK         0.0270 
     31 CB        -72.5289   29.5900  -77.5848 C.3       8 UNK        -0.1976 
     32 N         -73.0401   27.1848  -77.9533 N.am      8 UNK        -0.4313 
     33 C         -72.0791   26.6845  -78.7416 C.2       8 UNK         0.5041 
     34 O         -70.9179   27.0931  -78.7757 O.2       8 UNK        -0.5577 
     35 CA        -72.4912   25.5127  -79.6487 C.3       7 UNK         0.0284 
     36 CB        -72.1570   24.1748  -78.9688 C.3       7 UNK        -0.1958 
     37 N         -73.9213   25.5498  -79.9741 N.am      7 UNK        -0.4454 
     38 C         -74.4513   26.2729  -80.9707 C.2       7 UNK         0.5089 
     39 O         -73.7834   26.9194  -81.7783 O.2       7 UNK        -0.5125 
     40 CA        -75.9868   26.2799  -81.0917 C.3       6 UNK         0.0408 
     41 CB        -76.4579   25.1291  -81.9949 C.3       6 UNK        -0.1791 
     42 N         -76.6739   26.1955  -79.7992 N.am      6 UNK        -0.4762 
     43 C         -76.7272   27.1859  -78.8946 C.2       6 UNK         0.5007 
     44 O         -76.2258   28.2964  -79.0674 O.2       6 UNK        -0.5032 
     45 CA        -77.4468   26.8788  -77.5617 C.3       5 UNK         0.0783 
     46 C46       -78.9420   27.2768  -77.6737 C.3       11 UNK        -0.0857 
     47 S47       -79.9079   26.9871  -76.1479 S.3       11 UNK        -0.2512 
     48 C48       -80.6938   28.6142  -75.8584 C.3       11 UNK         0.0225 
     49 N         -77.2734   25.4936  -77.0997 N.am      5 UNK        -0.4615 
     50 C         -76.1014   24.8747  -76.9063 C.2       4 UNK         0.5053 
     51 O         -75.0083   25.3749  -77.1754 O.2       4 UNK        -0.5105 
     52 CA        -76.1728   23.4638  -76.3020 C.3       4 UNK         0.0263 
     53 CB        -74.8134   22.7350  -76.3340 C.3       4 UNK        -0.1981 
     54 N         -76.7087   23.4699  -74.9382 N.am      4 UNK        -0.4224 
     55 C         -76.2678   24.1674  -73.8813 C.2       3 UNK         0.4895 
     56 O         -75.3717   25.0136  -73.9185 O.2       3 UNK        -0.5091 
     57 CA        -76.9630   23.8427  -72.5493 C.3       3 UNK         0.0250 
     58 CB        -76.1007   24.2228  -71.3357 C.3       3 UNK        -0.1996 
     59 N         -78.2684   24.4975  -72.4476 N.am      3 UNK        -0.4254 
     60 C         -79.3789   24.0802  -73.0774 C.2       2 UNK         0.5004 
     61 O         -79.3952   23.1028  -73.8289 O.2       2 UNK        -0.5226 
     62 CA        -80.6865   24.8485  -72.8142 C.3       2 UNK         0.0269 
     63 CB        -81.9163   23.9211  -72.7741 C.3       2 UNK        -0.1926 
     64 N         -80.6097   25.6118  -71.5688 N.am      2 UNK        -0.4687 
     65 C         -81.0926   26.8461  -71.3851 C.2       1 UNK         0.5165 
     66 O         -81.7891   27.4128  -72.2274 O.2       1 UNK        -0.5079 
     67 H67       -77.7419   24.7244  -68.4445 H         1 UNK         0.0900 
     68 H68       -78.3797   25.8754  -67.2654 H         1 UNK         0.0900 
     69 H69       -76.8678   26.2211  -68.1054 H         1 UNK         0.0900 
     70 H70       -80.3294   26.5007  -68.2567 H         1 UNK         0.2959 
     71 H71       -81.7405   27.5947  -69.5125 H         1 UNK         0.1079 
     72 H72       -79.8149   29.3491  -69.2662 H         1 UNK         0.0837 
     73 H73       -79.4575   29.0291  -70.9333 H         1 UNK         0.0837 
     74 H74       -81.3886   32.1573  -72.0121 H         1 UNK         0.0685 
     75 H75       -79.9875   31.9726  -70.9872 H         1 UNK         0.0685 
     76 H76       -81.6886   29.9088  -73.6668 H         1 UNK         0.1434 
     77 H77       -78.0269   29.2464  -75.7972 H         1 UNK         0.1329 
     78 H78       -78.0075   31.5158  -72.1708 H         1 UNK         0.1335 
     79 H79       -76.1153   31.0924  -75.0183 H         1 UNK         0.0680 
     80 H80       -75.9379   31.1157  -73.2787 H         1 UNK         0.0680 
     81 H81       -76.3090   27.4246  -72.4701 H         1 UNK         0.1032 
     82 H82       -76.1835   29.0500  -71.8563 H         1 UNK         0.1032 
     83 H83       -73.6981   28.8897  -71.8712 H         1 UNK         0.0461 
     84 H84       -73.3912   25.8251  -70.5604 H         1 UNK         0.3453 
     85 H85       -73.9036   26.2162  -68.9356 H         1 UNK         0.3453 
     86 H86       -74.1331   26.5010  -73.3759 H         1 UNK         0.2984 
     87 H87       -70.6099   26.3113  -74.0625 H         1 UNK         0.0554 
     88 H88       -71.3630   24.2176  -72.9829 H         1 UNK         0.0847 
     89 H89       -71.4525   24.0709  -74.7302 H         1 UNK         0.0847 
     90 H90       -72.9189   24.3148  -73.7864 H         1 UNK         0.0847 
     91 H91       -73.0431   26.0469  -75.6385 H         1 UNK         0.3141 
     92 H92       -73.9517   28.3696  -76.5630 H         1 UNK         0.0743 
     93 H93       -72.5925   30.3974  -76.8543 H         1 UNK         0.0784 
     94 H94       -71.5044   29.5691  -77.9572 H         1 UNK         0.0784 
     95 H95       -73.1846   29.8519  -78.4153 H         1 UNK         0.0784 
     96 H96       -73.9198   26.6744  -77.9376 H         1 UNK         0.3213 
     97 H97       -71.9106   25.5807  -80.5716 H         1 UNK         0.0855 
     98 H98       -71.0842   24.0888  -78.7912 H         1 UNK         0.0814 
     99 H99       -72.4523   23.3270  -79.5871 H         1 UNK         0.0814 
    100 H100      -72.6518   24.0785  -78.0022 H         1 UNK         0.0814 
    101 H101      -74.5464   25.0902  -79.3254 H         1 UNK         0.3105 
    102 H102      -76.2752   27.2202  -81.5668 H         1 UNK         0.0547 
    103 H103      -75.9812   25.1831  -82.9747 H         1 UNK         0.0837 
    104 H104      -76.2168   24.1540  -81.5698 H         1 UNK         0.0837 
    105 H105      -77.5348   25.1680  -82.1593 H         1 UNK         0.0837 
    106 H106      -77.1224   25.3188  -79.5739 H         1 UNK         0.3020 
    107 H107      -76.9736   27.5088  -76.8060 H         1 UNK         0.1245 
    108 H108      -79.4253   26.7144  -78.4751 H         1 UNK         0.0781 
    109 H109      -79.0238   28.3278  -77.9571 H         1 UNK         0.0781 
    110 H110      -81.7070   28.4251  -75.5000 H         1 UNK         0.0836 
    111 H111      -80.8055   29.1648  -76.7929 H         1 UNK         0.0836 
    112 H112      -78.1211   25.0200  -76.8223 H         1 UNK         0.3022 
    113 H113      -76.8709   22.8900  -76.9133 H         1 UNK         0.0747 
    114 H114      -74.4565   22.6250  -77.3583 H         1 UNK         0.0793 
    115 H115      -74.0485   23.2752  -75.7753 H         1 UNK         0.0793 
    116 H116      -74.8903   21.7335  -75.9110 H         1 UNK         0.0793 
    117 H117      -77.5295   22.8933  -74.7837 H         1 UNK         0.3047 
    118 H118      -77.1092   22.7608  -72.5096 H         1 UNK         0.0822 
    119 H119      -75.1065   23.7796  -71.4044 H         1 UNK         0.0807 
    120 H120      -76.5479   23.8741  -70.4058 H         1 UNK         0.0807 
    121 H121      -75.9735   25.3010  -71.2636 H         1 UNK         0.0807 
    122 H122      -78.3004   25.3453  -71.8896 H         1 UNK         0.2946 
    123 H123      -80.8009   25.5358  -73.6553 H         1 UNK         0.1144 
    124 H124      -82.8342   24.4880  -72.6179 H         1 UNK         0.0793 
    125 H125      -81.8365   23.1835  -71.9748 H         1 UNK         0.0793 
    126 H126      -82.0315   23.3778  -73.7128 H         1 UNK         0.0793 
    127 H127      -80.0671   25.2025  -70.8213 H         1 UNK         0.2896 
@<TRIPOS>BOND
     1    1    2 1    
     2    1   67 1    
     3    1   68 1    
     4    1   69 1    
     5    2    3 2    
     6    2    4 am   BACKBONE|DICT|INTERRES
     7    4    5 1    
     8    4   70 1    
     9    5    6 1    
    10    5   65 1    
    11    5   71 1    
    12    6    7 1    
    13    6   72 1    
    14    6   73 1    
    15    7    8 1    
    16    8    9 1    
    17    8   74 1    
    18    8   75 1    
    19    9   10 ar   
    20    9   14 ar   
    21   10   11 ar   
    22   10   76 1    
    23   11   12 ar   
    24   11   48 1    
    25   12   13 ar   
    26   12   77 1    
    27   13   14 ar   
    28   13   15 1    
    29   14   78 1    
    30   15   16 1    
    31   15   79 1    
    32   15   80 1    
    33   16   17 1    
    34   17   18 1    
    35   17   81 1    
    36   17   82 1    
    37   18   19 1    
    38   18   22 1    
    39   18   83 1    
    40   19   20 am   BACKBONE|DICT|INTERRES
    41   19   21 2    
    42   20   84 1    
    43   20   85 1    
    44   22   23 am   BACKBONE|DICT|INTERRES
    45   22   86 1    
    46   23   24 2    
    47   23   25 1    
    48   25   26 1    
    49   25   27 1    
    50   25   87 1    
    51   26   88 1    
    52   26   89 1    
    53   26   90 1    
    54   27   28 am   BACKBONE|DICT|INTERRES
    55   27   91 1    
    56   28   29 2    
    57   28   30 1    
    58   30   31 1    
    59   30   32 1    
    60   30   92 1    
    61   31   93 1    
    62   31   94 1    
    63   31   95 1    
    64   32   33 am   BACKBONE|DICT|INTERRES
    65   32   96 1    
    66   33   34 2    
    67   33   35 1    
    68   35   36 1    
    69   35   37 1    
    70   35   97 1    
    71   36   98 1    
    72   36   99 1    
    73   36  100 1    
    74   37   38 am   BACKBONE|DICT|INTERRES
    75   37  101 1    
    76   38   39 2    
    77   38   40 1    
    78   40   41 1    
    79   40   42 1    
    80   40  102 1    
    81   41  103 1    
    82   41  104 1    
    83   41  105 1    
    84   42   43 am   BACKBONE|DICT|INTERRES
    85   42  106 1    
    86   43   44 2    
    87   43   45 1    
    88   45   46 1    
    89   45   49 1    
    90   45  107 1    
    91   46   47 1    
    92   46  108 1    
    93   46  109 1    
    94   47   48 1    
    95   48  110 1    
    96   48  111 1    
    97   49   50 am   BACKBONE|DICT|INTERRES
    98   49  112 1    
    99   50   51 2    
   100   50   52 1    
   101   52   53 1    
   102   52   54 1    
   103   52  113 1    
   104   53  114 1    
   105   53  115 1    
   106   53  116 1    
   107   54   55 am   BACKBONE|DICT|INTERRES
   108   54  117 1    
   109   55   56 2    
   110   55   57 1    
   111   57   58 1    
   112   57   59 1    
   113   57  118 1    
   114   58  119 1    
   115   58  120 1    
   116   58  121 1    
   117   59   60 am   BACKBONE|DICT|INTERRES
   118   59  122 1    
   119   60   61 2    
   120   60   62 1    
   121   62   63 1    
   122   62   64 1    
   123   62  123 1    
   124   63  124 1    
   125   63  125 1    
   126   63  126 1    
   127   64   65 am   BACKBONE|DICT|INTERRES
   128   64  127 1    
   129   65   66 2    
@<TRIPOS>SUBSTRUCTURE
     1 UNK         1 GROUP             0       ****    0 ROOT    
