@<TRIPOS>MOLECULE
3R135
127   129    1
SMALL
USER_CHARGES


@<TRIPOS>ATOM
      1 CA        -76.6454   23.5613  -72.3388 C.3       0 UNK        -0.1998 
      2 C         -77.9199   23.7340  -71.5261 C.2       0 UNK         0.4909 
      3 O         -77.9525   23.3735  -70.3499 O.2       0 UNK        -0.5240 
      4 N         -78.9683   24.2780  -72.1515 N.am      1 UNK        -0.4739 
      5 CA        -80.2707   24.5775  -71.5493 C.3       1 UNK         0.0864 
      6 C6        -80.5966   26.0951  -71.6257 C.3       11 UNK        -0.0881 
      7 S7        -79.4668   27.1083  -70.6089 S.3       11 UNK        -0.2682 
      8 C8        -78.0860   27.3779  -71.7670 C.3       11 UNK         0.0289 
      9 C9        -77.9598   28.8234  -72.2173 C.ar      11 UNK        -0.0687 
     10 C10       -78.9585   29.4110  -72.9996 C.ar      11 UNK        -0.0823 
     11 C11       -78.7977   30.7087  -73.4952 C.ar      11 UNK        -0.0830 
     12 C12       -77.6416   31.4277  -73.1818 C.ar      11 UNK        -0.1021 
     13 C13       -76.6362   30.8480  -72.4050 C.ar      11 UNK        -0.0753 
     14 C14       -76.8029   29.5491  -71.9182 C.ar      11 UNK        -0.0933 
     15 C15       -75.3439   31.6029  -72.1494 C.3       11 UNK         0.0166 
     16 S16       -74.3021   31.5466  -73.6362 S.3       11 UNK        -0.2615 
     17 C17       -72.6787   32.0700  -72.9860 C.3       11 UNK        -0.0865 
     18 CA        -71.7118   30.8863  -72.7016 C.3       10 UNK         0.0862 
     19 C         -71.9680   30.2245  -71.3139 C.2       10 UNK         0.5551 
     20 N         -72.1343   28.9116  -71.2069 N.am      10 UNK        -0.7319 
     21 O         -72.0028   30.9219  -70.3031 O.2       10 UNK        -0.5018 
     22 N         -71.6646   29.9502  -73.8351 N.am      10 UNK        -0.4509 
     23 C         -70.6273   29.1757  -74.1655 C.2       10 UNK         0.4899 
     24 O         -69.5312   29.2213  -73.6043 O.2       10 UNK        -0.4839 
     25 CA        -70.8775   28.1747  -75.3120 C.3       9 UNK         0.0222 
     26 CB        -69.7408   27.1420  -75.4603 C.3       9 UNK        -0.1966 
     27 N         -72.1743   27.4874  -75.2205 N.am      9 UNK        -0.4218 
     28 C         -72.6432   26.7654  -74.1883 C.2       9 UNK         0.5020 
     29 O         -72.0674   26.6631  -73.1046 O.2       9 UNK        -0.5274 
     30 CA        -73.9836   26.0296  -74.3810 C.3       8 UNK         0.0270 
     31 CB        -75.1211   26.8067  -73.6994 C.3       8 UNK        -0.1976 
     32 N         -74.3362   25.7903  -75.7825 N.am      8 UNK        -0.4313 
     33 C         -73.6572   25.0107  -76.6361 C.2       8 UNK         0.5041 
     34 O         -72.6801   24.3317  -76.3194 O.2       8 UNK        -0.5577 
     35 CA        -74.1264   25.0175  -78.1007 C.3       7 UNK         0.0284 
     36 CB        -75.1587   23.9060  -78.3505 C.3       7 UNK        -0.1958 
     37 N         -74.6862   26.3107  -78.5068 N.am      7 UNK        -0.4454 
     38 C         -73.9694   27.4274  -78.6990 C.2       7 UNK         0.5089 
     39 O         -72.7469   27.4877  -78.5694 O.2       7 UNK        -0.5125 
     40 CA        -74.7524   28.6974  -79.0770 C.3       6 UNK         0.0408 
     41 CB        -75.0067   28.7433  -80.5919 C.3       6 UNK        -0.1791 
     42 N         -76.0264   28.8132  -78.3621 N.am      6 UNK        -0.4762 
     43 C         -76.1365   29.0738  -77.0501 C.2       6 UNK         0.5007 
     44 O         -75.1710   29.2863  -76.3175 O.2       6 UNK        -0.5032 
     45 CA        -77.5616   29.0428  -76.4556 C.3       5 UNK         0.0783 
     46 C46       -78.2507   30.4255  -76.6112 C.3       11 UNK        -0.0857 
     47 S47       -79.9757   30.4321  -75.9972 S.3       11 UNK        -0.2512 
     48 C48       -79.8467   31.3209  -74.4107 C.3       11 UNK         0.0225 
     49 N         -78.3884   27.9606  -77.0086 N.am      5 UNK        -0.4615 
     50 C         -78.0985   26.6546  -76.9955 C.2       4 UNK         0.5053 
     51 O         -77.0398   26.1917  -76.5703 O.2       4 UNK        -0.5105 
     52 CA        -79.1496   25.7350  -77.6417 C.3       4 UNK         0.0263 
     53 CB        -79.0550   25.8276  -79.1749 C.3       4 UNK        -0.1981 
     54 N         -79.0415   24.3243  -77.2575 N.am      4 UNK        -0.4224 
     55 C         -79.1436   23.8348  -76.0155 C.2       3 UNK         0.4895 
     56 O         -79.2748   24.5247  -74.9997 O.2       3 UNK        -0.5091 
     57 CA        -79.0772   22.3032  -75.8937 C.3       3 UNK         0.0250 
     58 CB        -77.6177   21.8248  -75.8187 C.3       3 UNK        -0.1996 
     59 N         -79.7856   21.8728  -74.6895 N.am      3 UNK        -0.4254 
     60 C         -81.0934   21.5834  -74.6257 C.2       2 UNK         0.5004 
     61 O         -81.8240   21.4633  -75.6097 O.2       2 UNK        -0.5226 
     62 CA        -81.6897   21.4416  -73.2122 C.3       2 UNK         0.0269 
     63 CB        -81.5166   20.0076  -72.6861 C.3       2 UNK        -0.1926 
     64 N         -81.0679   22.3876  -72.2797 N.am      2 UNK        -0.4687 
     65 C         -81.3017   23.7092  -72.2917 C.2       1 UNK         0.5165 
     66 O         -82.2287   24.2295  -72.9157 O.2       1 UNK        -0.5079 
     67 H67       -75.8132   24.0567  -71.8392 H         1 UNK         0.0900 
     68 H68       -76.7401   23.9899  -73.3364 H         1 UNK         0.0900 
     69 H69       -76.4022   22.5041  -72.4404 H         1 UNK         0.0900 
     70 H70       -78.9163   24.4875  -73.1477 H         1 UNK         0.2959 
     71 H71       -80.2974   24.2733  -70.5006 H         1 UNK         0.1079 
     72 H72       -80.5785   26.4486  -72.6587 H         1 UNK         0.0837 
     73 H73       -81.6089   26.2810  -71.2620 H         1 UNK         0.0837 
     74 H74       -78.1999   26.7597  -72.6570 H         1 UNK         0.0685 
     75 H75       -77.1681   27.0418  -71.2826 H         1 UNK         0.0685 
     76 H76       -79.8442   28.8451  -73.2543 H         1 UNK         0.1434 
     77 H77       -77.4998   32.4248  -73.5761 H         1 UNK         0.1329 
     78 H78       -76.0140   29.0913  -71.3370 H         1 UNK         0.1335 
     79 H79       -75.5567   32.6405  -71.8882 H         1 UNK         0.0680 
     80 H80       -74.8105   31.1677  -71.3032 H         1 UNK         0.0680 
     81 H81       -72.8098   32.7067  -72.1088 H         1 UNK         0.1032 
     82 H82       -72.2281   32.7167  -73.7402 H         1 UNK         0.1032 
     83 H83       -70.7165   31.3253  -72.6096 H         1 UNK         0.0461 
     84 H84       -72.2890   28.5139  -70.2949 H         1 UNK         0.3453 
     85 H85       -72.0697   28.2993  -72.0133 H         1 UNK         0.3453 
     86 H86       -72.5366   29.8383  -74.3342 H         1 UNK         0.2984 
     87 H87       -70.9101   28.7633  -76.2299 H         1 UNK         0.0554 
     88 H88       -69.9258   26.4678  -76.2969 H         1 UNK         0.0847 
     89 H89       -69.6274   26.5356  -74.5609 H         1 UNK         0.0847 
     90 H90       -68.7848   27.6331  -75.6460 H         1 UNK         0.0847 
     91 H91       -72.7451   27.5250  -76.0550 H         1 UNK         0.3141 
     92 H92       -73.8951   25.0555  -73.8959 H         1 UNK         0.0743 
     93 H93       -75.2133   27.8194  -74.0928 H         1 UNK         0.0784 
     94 H94       -76.0807   26.3091  -73.8356 H         1 UNK         0.0784 
     95 H95       -74.9443   26.8919  -72.6266 H         1 UNK         0.0784 
     96 H96       -75.2004   26.2124  -76.1158 H         1 UNK         0.3213 
     97 H97       -73.2532   24.8164  -78.7255 H         1 UNK         0.0855 
     98 H98       -76.0619   24.0518  -77.7589 H         1 UNK         0.0814 
     99 H99       -74.7505   22.9300  -78.0845 H         1 UNK         0.0814 
    100 H100      -75.4479   23.8603  -79.4005 H         1 UNK         0.0814 
    101 H101      -75.6922   26.3708  -78.5633 H         1 UNK         0.3105 
    102 H102      -74.1353   29.5590  -78.8124 H         1 UNK         0.0547 
    103 H103      -74.0689   28.6788  -81.1457 H         1 UNK         0.0837 
    104 H104      -75.6379   27.9183  -80.9245 H         1 UNK         0.0837 
    105 H105      -75.4894   29.6756  -80.8854 H         1 UNK         0.0837 
    106 H106      -76.8706   28.6519  -78.8924 H         1 UNK         0.3020 
    107 H107      -77.4451   28.8371  -75.3893 H         1 UNK         0.1245 
    108 H108      -78.2793   30.7203  -77.6619 H         1 UNK         0.0781 
    109 H109      -77.6768   31.2005  -76.0998 H         1 UNK         0.0781 
    110 H110      -80.8164   31.3010  -73.9114 H         1 UNK         0.0836 
    111 H111      -79.6265   32.3708  -74.6105 H         1 UNK         0.0836 
    112 H112      -79.2826   28.2540  -77.3753 H         1 UNK         0.3022 
    113 H113      -80.1360   26.0814  -77.3263 H         1 UNK         0.0747 
    114 H114      -79.8348   25.2372  -79.6567 H         1 UNK         0.0793 
    115 H115      -79.1763   26.8547  -79.5214 H         1 UNK         0.0793 
    116 H116      -78.0912   25.4714  -79.5416 H         1 UNK         0.0793 
    117 H117      -78.9020   23.6723  -78.0150 H         1 UNK         0.3047 
    118 H118      -79.5476   21.8548  -76.7718 H         1 UNK         0.0822 
    119 H119      -77.0817   22.0600  -76.7383 H         1 UNK         0.0807 
    120 H120      -77.5616   20.7445  -75.6834 H         1 UNK         0.0807 
    121 H121      -77.0749   22.2931  -74.9983 H         1 UNK         0.0807 
    122 H122      -79.2896   21.9882  -73.8197 H         1 UNK         0.2946 
    123 H123      -82.7585   21.6596  -73.2771 H         1 UNK         0.1144 
    124 H124      -81.9866   19.2881  -73.3581 H         1 UNK         0.0793 
    125 H125      -81.9815   19.8862  -71.7075 H         1 UNK         0.0793 
    126 H126      -80.4655   19.7308  -72.5956 H         1 UNK         0.0793 
    127 H127      -80.3011   22.0433  -71.7188 H         1 UNK         0.2896 
@<TRIPOS>BOND
     1    1    2 1    
     2    1   67 1    
     3    1   68 1    
     4    1   69 1    
     5    2    3 2    
     6    2    4 am   BACKBONE|DICT|INTERRES
     7    4    5 1    
     8    4   70 1    
     9    5    6 1    
    10    5   65 1    
    11    5   71 1    
    12    6    7 1    
    13    6   72 1    
    14    6   73 1    
    15    7    8 1    
    16    8    9 1    
    17    8   74 1    
    18    8   75 1    
    19    9   10 ar   
    20    9   14 ar   
    21   10   11 ar   
    22   10   76 1    
    23   11   12 ar   
    24   11   48 1    
    25   12   13 ar   
    26   12   77 1    
    27   13   14 ar   
    28   13   15 1    
    29   14   78 1    
    30   15   16 1    
    31   15   79 1    
    32   15   80 1    
    33   16   17 1    
    34   17   18 1    
    35   17   81 1    
    36   17   82 1    
    37   18   19 1    
    38   18   22 1    
    39   18   83 1    
    40   19   20 am   BACKBONE|DICT|INTERRES
    41   19   21 2    
    42   20   84 1    
    43   20   85 1    
    44   22   23 am   BACKBONE|DICT|INTERRES
    45   22   86 1    
    46   23   24 2    
    47   23   25 1    
    48   25   26 1    
    49   25   27 1    
    50   25   87 1    
    51   26   88 1    
    52   26   89 1    
    53   26   90 1    
    54   27   28 am   BACKBONE|DICT|INTERRES
    55   27   91 1    
    56   28   29 2    
    57   28   30 1    
    58   30   31 1    
    59   30   32 1    
    60   30   92 1    
    61   31   93 1    
    62   31   94 1    
    63   31   95 1    
    64   32   33 am   BACKBONE|DICT|INTERRES
    65   32   96 1    
    66   33   34 2    
    67   33   35 1    
    68   35   36 1    
    69   35   37 1    
    70   35   97 1    
    71   36   98 1    
    72   36   99 1    
    73   36  100 1    
    74   37   38 am   BACKBONE|DICT|INTERRES
    75   37  101 1    
    76   38   39 2    
    77   38   40 1    
    78   40   41 1    
    79   40   42 1    
    80   40  102 1    
    81   41  103 1    
    82   41  104 1    
    83   41  105 1    
    84   42   43 am   BACKBONE|DICT|INTERRES
    85   42  106 1    
    86   43   44 2    
    87   43   45 1    
    88   45   46 1    
    89   45   49 1    
    90   45  107 1    
    91   46   47 1    
    92   46  108 1    
    93   46  109 1    
    94   47   48 1    
    95   48  110 1    
    96   48  111 1    
    97   49   50 am   BACKBONE|DICT|INTERRES
    98   49  112 1    
    99   50   51 2    
   100   50   52 1    
   101   52   53 1    
   102   52   54 1    
   103   52  113 1    
   104   53  114 1    
   105   53  115 1    
   106   53  116 1    
   107   54   55 am   BACKBONE|DICT|INTERRES
   108   54  117 1    
   109   55   56 2    
   110   55   57 1    
   111   57   58 1    
   112   57   59 1    
   113   57  118 1    
   114   58  119 1    
   115   58  120 1    
   116   58  121 1    
   117   59   60 am   BACKBONE|DICT|INTERRES
   118   59  122 1    
   119   60   61 2    
   120   60   62 1    
   121   62   63 1    
   122   62   64 1    
   123   62  123 1    
   124   63  124 1    
   125   63  125 1    
   126   63  126 1    
   127   64   65 am   BACKBONE|DICT|INTERRES
   128   64  127 1    
   129   65   66 2    
@<TRIPOS>SUBSTRUCTURE
     1 UNK         1 GROUP             0       ****    0 ROOT    
