@<TRIPOS>MOLECULE
3R135
127   129    1
SMALL
USER_CHARGES


@<TRIPOS>ATOM
      1 CA        -84.5854   29.9110  -72.9851 C.3       0 UNK        -0.1998 
      2 C         -83.6269   29.7337  -74.1530 C.2       0 UNK         0.4909 
      3 O         -84.0043   29.9816  -75.2986 O.2       0 UNK        -0.5240 
      4 N         -82.3891   29.3064  -73.8714 N.am      1 UNK        -0.4739 
      5 CA        -81.3331   29.0819  -74.8708 C.3       1 UNK         0.0864 
      6 C6        -79.9259   29.0125  -74.2283 C.3       11 UNK        -0.0881 
      7 S7        -79.5197   30.4695  -73.2084 S.3       11 UNK        -0.2682 
      8 C8        -79.4335   29.7369  -71.5409 C.3       11 UNK         0.0289 
      9 C9        -78.2896   28.7394  -71.4036 C.ar      11 UNK        -0.0687 
     10 C10       -78.5481   27.3954  -71.1124 C.ar      11 UNK        -0.0823 
     11 C11       -77.4971   26.4842  -70.9606 C.ar      11 UNK        -0.0830 
     12 C12       -76.1801   26.9240  -71.1293 C.ar      11 UNK        -0.1021 
     13 C13       -75.9099   28.2631  -71.4296 C.ar      11 UNK        -0.0753 
     14 C14       -76.9677   29.1676  -71.5491 C.ar      11 UNK        -0.0933 
     15 C15       -74.4747   28.7312  -71.6130 C.3       11 UNK         0.0166 
     16 S16       -73.9854   28.6864  -73.3630 S.3       11 UNK        -0.2615 
     17 C17       -74.4788   30.3451  -73.9608 C.3       11 UNK        -0.0865 
     18 CA        -73.2613   31.2450  -74.2986 C.3       10 UNK         0.0862 
     19 C         -72.5206   31.7002  -73.0041 C.2       10 UNK         0.5551 
     20 N         -71.3668   31.1340  -72.6661 N.am      10 UNK        -0.7319 
     21 O         -73.0048   32.5839  -72.3015 O.2       10 UNK        -0.5018 
     22 N         -72.4084   30.5982  -75.3035 N.am      10 UNK        -0.4509 
     23 C         -71.3489   31.1447  -75.9101 C.2       10 UNK         0.4899 
     24 O         -71.0877   32.3479  -75.8683 O.2       10 UNK        -0.4839 
     25 CA        -70.4152   30.1867  -76.6835 C.3       9 UNK         0.0222 
     26 CB        -68.9319   30.5781  -76.5197 C.3       9 UNK        -0.1966 
     27 N         -70.6006   28.7596  -76.3702 N.am      9 UNK        -0.4218 
     28 C         -70.5052   28.1419  -75.1824 C.2       9 UNK         0.5020 
     29 O         -70.2284   28.7299  -74.1342 O.2       9 UNK        -0.5274 
     30 CA        -70.8000   26.6235  -75.1637 C.3       8 UNK         0.0270 
     31 CB        -70.9309   26.0678  -73.7331 C.3       8 UNK        -0.1976 
     32 N         -71.9959   26.2402  -75.9298 N.am      8 UNK        -0.4313 
     33 C         -72.0821   26.1937  -77.2688 C.2       8 UNK         0.5041 
     34 O         -71.1539   26.5233  -78.0091 O.2       8 UNK        -0.5577 
     35 CA        -73.4000   25.7243  -77.9117 C.3       7 UNK         0.0284 
     36 CB        -73.2272   24.3243  -78.5223 C.3       7 UNK        -0.1958 
     37 N         -74.5383   25.7114  -76.9930 N.am      7 UNK        -0.4454 
     38 C         -75.1617   26.8061  -76.5316 C.2       7 UNK         0.5089 
     39 O         -74.8593   27.9509  -76.8696 O.2       7 UNK        -0.5125 
     40 CA        -76.3154   26.5976  -75.5300 C.3       6 UNK         0.0408 
     41 CB        -77.6651   26.7860  -76.2381 C.3       6 UNK        -0.1791 
     42 N         -76.3179   25.2907  -74.8682 N.am      6 UNK        -0.4762 
     43 C         -75.3435   24.7910  -74.0917 C.2       6 UNK         0.5007 
     44 O         -74.2844   25.3711  -73.8554 O.2       6 UNK        -0.5032 
     45 CA        -75.5503   23.3596  -73.5547 C.3       5 UNK         0.0783 
     46 C46       -76.1174   23.3541  -72.1141 C.3       11 UNK        -0.0857 
     47 S47       -77.8553   23.9116  -71.9872 S.3       11 UNK        -0.2512 
     48 C48       -77.7901   25.0429  -70.5610 C.3       11 UNK         0.0225 
     49 N         -76.3329   22.5092  -74.4603 N.am      5 UNK        -0.4615 
     50 C         -75.9864   22.2000  -75.7178 C.2       4 UNK         0.5053 
     51 O         -74.9464   22.5872  -76.2498 O.2       4 UNK        -0.5105 
     52 CA        -76.9610   21.3308  -76.5310 C.3       4 UNK         0.0263 
     53 CB        -76.4805   19.8708  -76.5537 C.3       4 UNK        -0.1981 
     54 N         -78.3503   21.3735  -76.0612 N.am      4 UNK        -0.4224 
     55 C         -79.1461   22.4516  -76.1033 C.2       3 UNK         0.4895 
     56 O         -78.7745   23.5543  -76.5094 O.2       3 UNK        -0.5091 
     57 CA        -80.5977   22.2222  -75.6402 C.3       3 UNK         0.0250 
     58 CB        -80.6704   21.7595  -74.1675 C.3       3 UNK        -0.1996 
     59 N         -81.4851   23.3686  -75.8871 N.am      3 UNK        -0.4254 
     60 C         -81.5011   24.5570  -75.2647 C.2       2 UNK         0.5004 
     61 O         -80.7578   24.8713  -74.3315 O.2       2 UNK        -0.5226 
     62 CA        -82.5841   25.5402  -75.7465 C.3       2 UNK         0.0269 
     63 CB        -83.9845   25.0628  -75.3208 C.3       2 UNK        -0.1926 
     64 N         -82.3655   26.8726  -75.1862 N.am      2 UNK        -0.4687 
     65 C         -81.5763   27.8140  -75.7191 C.2       1 UNK         0.5165 
     66 O         -81.0398   27.7105  -76.8232 O.2       1 UNK        -0.5079 
     67 H67       -84.1192   29.6599  -72.0325 H         1 UNK         0.0900 
     68 H68       -85.4576   29.2710  -73.1151 H         1 UNK         0.0900 
     69 H69       -84.9257   30.9449  -72.9333 H         1 UNK         0.0900 
     70 H70       -82.1250   29.1414  -72.9112 H         1 UNK         0.2959 
     71 H71       -81.3443   29.9284  -75.5615 H         1 UNK         0.1079 
     72 H72       -79.8201   28.1012  -73.6367 H         1 UNK         0.0837 
     73 H73       -79.1636   28.9533  -75.0061 H         1 UNK         0.0837 
     74 H74       -80.3906   29.2707  -71.3033 H         1 UNK         0.0685 
     75 H75       -79.2935   30.5371  -70.8129 H         1 UNK         0.0685 
     76 H76       -79.5684   27.0595  -70.9868 H         1 UNK         0.1434 
     77 H77       -75.3603   26.2281  -71.0217 H         1 UNK         0.1329 
     78 H78       -76.7687   30.2073  -71.7660 H         1 UNK         0.1335 
     79 H79       -73.7994   28.0848  -71.0506 H         1 UNK         0.0680 
     80 H80       -74.3400   29.7350  -71.2071 H         1 UNK         0.0680 
     81 H81       -75.1313   30.8377  -73.2396 H         1 UNK         0.1032 
     82 H82       -75.0888   30.2056  -74.8548 H         1 UNK         0.1032 
     83 H83       -73.6476   32.1550  -74.7613 H         1 UNK         0.0461 
     84 H84       -70.8919   31.4342  -71.8305 H         1 UNK         0.3453 
     85 H85       -70.9882   30.3721  -73.2200 H         1 UNK         0.3453 
     86 H86       -72.5384   29.6006  -75.3887 H         1 UNK         0.2984 
     87 H87       -70.6748   30.2988  -77.7369 H         1 UNK         0.0554 
     88 H88       -68.2806   29.9146  -77.0885 H         1 UNK         0.0847 
     89 H89       -68.6187   30.5419  -75.4757 H         1 UNK         0.0847 
     90 H90       -68.7491   31.5918  -76.8784 H         1 UNK         0.0847 
     91 H91       -70.8192   28.1564  -77.1618 H         1 UNK         0.3141 
     92 H92       -69.9371   26.1376  -75.6236 H         1 UNK         0.0743 
     93 H93       -71.7643   26.5270  -73.1997 H         1 UNK         0.0784 
     94 H94       -71.0918   24.9897  -73.7379 H         1 UNK         0.0784 
     95 H95       -70.0271   26.2566  -73.1523 H         1 UNK         0.0784 
     96 H96       -72.8157   25.9961  -75.3835 H         1 UNK         0.3213 
     97 H97       -73.6295   26.4207  -78.7213 H         1 UNK         0.0855 
     98 H98       -72.9519   23.5869  -77.7674 H         1 UNK         0.0814 
     99 H99       -72.4407   24.3230  -79.2783 H         1 UNK         0.0814 
    100 H100      -74.1423   23.9836  -79.0069 H         1 UNK         0.0814 
    101 H101      -74.8405   24.8047  -76.6558 H         1 UNK         0.3105 
    102 H102      -76.2272   27.3574  -74.7519 H         1 UNK         0.0547 
    103 H103      -77.7488   27.7867  -76.6635 H         1 UNK         0.0837 
    104 H104      -77.7935   26.0749  -77.0551 H         1 UNK         0.0837 
    105 H105      -78.4996   26.6496  -75.5499 H         1 UNK         0.0837 
    106 H106      -77.1365   24.7155  -75.0232 H         1 UNK         0.3020 
    107 H107      -74.5520   22.9176  -73.5082 H         1 UNK         0.1245 
    108 H108      -75.4804   23.9509  -71.4601 H         1 UNK         0.0781 
    109 H109      -76.0694   22.3411  -71.7118 H         1 UNK         0.0781 
    110 H110      -77.0529   24.6940  -69.8364 H         1 UNK         0.0836 
    111 H111      -78.7508   24.9938  -70.0462 H         1 UNK         0.0836 
    112 H112      -77.2138   22.1712  -74.1022 H         1 UNK         0.3022 
    113 H113      -76.9470   21.7097  -77.5553 H         1 UNK         0.0747 
    114 H114      -77.1019   19.2574  -77.2065 H         1 UNK         0.0793 
    115 H115      -75.4576   19.8022  -76.9274 H         1 UNK         0.0793 
    116 H116      -76.4938   19.4251  -75.5582 H         1 UNK         0.0793 
    117 H117      -78.7339   20.5026  -75.7226 H         1 UNK         0.3047 
    118 H118      -80.9925   21.4150  -76.2593 H         1 UNK         0.0822 
    119 H119      -80.1837   20.7941  -74.0270 H         1 UNK         0.0807 
    120 H120      -81.7035   21.6450  -73.8392 H         1 UNK         0.0807 
    121 H121      -80.1837   22.4650  -73.4934 H         1 UNK         0.0807 
    122 H122      -82.1342   23.2373  -76.6503 H         1 UNK         0.2946 
    123 H123      -82.5415   25.5932  -76.8371 H         1 UNK         0.1144 
    124 H124      -84.2262   24.0952  -75.7620 H         1 UNK         0.0793 
    125 H125      -84.7558   25.7626  -75.6434 H         1 UNK         0.0793 
    126 H126      -84.0621   24.9551  -74.2380 H         1 UNK         0.0793 
    127 H127      -82.7250   27.0336  -74.2570 H         1 UNK         0.2896 
@<TRIPOS>BOND
     1    1    2 1    
     2    1   67 1    
     3    1   68 1    
     4    1   69 1    
     5    2    3 2    
     6    2    4 am   BACKBONE|DICT|INTERRES
     7    4    5 1    
     8    4   70 1    
     9    5    6 1    
    10    5   65 1    
    11    5   71 1    
    12    6    7 1    
    13    6   72 1    
    14    6   73 1    
    15    7    8 1    
    16    8    9 1    
    17    8   74 1    
    18    8   75 1    
    19    9   10 ar   
    20    9   14 ar   
    21   10   11 ar   
    22   10   76 1    
    23   11   12 ar   
    24   11   48 1    
    25   12   13 ar   
    26   12   77 1    
    27   13   14 ar   
    28   13   15 1    
    29   14   78 1    
    30   15   16 1    
    31   15   79 1    
    32   15   80 1    
    33   16   17 1    
    34   17   18 1    
    35   17   81 1    
    36   17   82 1    
    37   18   19 1    
    38   18   22 1    
    39   18   83 1    
    40   19   20 am   BACKBONE|DICT|INTERRES
    41   19   21 2    
    42   20   84 1    
    43   20   85 1    
    44   22   23 am   BACKBONE|DICT|INTERRES
    45   22   86 1    
    46   23   24 2    
    47   23   25 1    
    48   25   26 1    
    49   25   27 1    
    50   25   87 1    
    51   26   88 1    
    52   26   89 1    
    53   26   90 1    
    54   27   28 am   BACKBONE|DICT|INTERRES
    55   27   91 1    
    56   28   29 2    
    57   28   30 1    
    58   30   31 1    
    59   30   32 1    
    60   30   92 1    
    61   31   93 1    
    62   31   94 1    
    63   31   95 1    
    64   32   33 am   BACKBONE|DICT|INTERRES
    65   32   96 1    
    66   33   34 2    
    67   33   35 1    
    68   35   36 1    
    69   35   37 1    
    70   35   97 1    
    71   36   98 1    
    72   36   99 1    
    73   36  100 1    
    74   37   38 am   BACKBONE|DICT|INTERRES
    75   37  101 1    
    76   38   39 2    
    77   38   40 1    
    78   40   41 1    
    79   40   42 1    
    80   40  102 1    
    81   41  103 1    
    82   41  104 1    
    83   41  105 1    
    84   42   43 am   BACKBONE|DICT|INTERRES
    85   42  106 1    
    86   43   44 2    
    87   43   45 1    
    88   45   46 1    
    89   45   49 1    
    90   45  107 1    
    91   46   47 1    
    92   46  108 1    
    93   46  109 1    
    94   47   48 1    
    95   48  110 1    
    96   48  111 1    
    97   49   50 am   BACKBONE|DICT|INTERRES
    98   49  112 1    
    99   50   51 2    
   100   50   52 1    
   101   52   53 1    
   102   52   54 1    
   103   52  113 1    
   104   53  114 1    
   105   53  115 1    
   106   53  116 1    
   107   54   55 am   BACKBONE|DICT|INTERRES
   108   54  117 1    
   109   55   56 2    
   110   55   57 1    
   111   57   58 1    
   112   57   59 1    
   113   57  118 1    
   114   58  119 1    
   115   58  120 1    
   116   58  121 1    
   117   59   60 am   BACKBONE|DICT|INTERRES
   118   59  122 1    
   119   60   61 2    
   120   60   62 1    
   121   62   63 1    
   122   62   64 1    
   123   62  123 1    
   124   63  124 1    
   125   63  125 1    
   126   63  126 1    
   127   64   65 am   BACKBONE|DICT|INTERRES
   128   64  127 1    
   129   65   66 2    
@<TRIPOS>SUBSTRUCTURE
     1 UNK         1 GROUP             0       ****    0 ROOT    
