@<TRIPOS>MOLECULE
3R135
127   129    1
SMALL
USER_CHARGES


@<TRIPOS>ATOM
      1 CA        -77.9992   22.0437  -70.9729 C.3       0 UNK        -0.1998 
      2 C         -79.2400   22.8122  -71.3992 C.2       0 UNK         0.4909 
      3 O         -80.0389   22.2995  -72.1841 O.2       0 UNK        -0.5240 
      4 N         -79.4052   24.0445  -70.9004 N.am      1 UNK        -0.4739 
      5 CA        -80.4962   24.9615  -71.2491 C.3       1 UNK         0.0864 
      6 C6        -80.5025   26.2419  -70.3726 C.3       11 UNK        -0.0881 
      7 S7        -78.8698   27.0404  -70.1537 S.3       11 UNK        -0.2682 
      8 C8        -79.3291   28.7963  -70.0184 C.3       11 UNK         0.0289 
      9 C9        -79.0641   29.5495  -71.3131 C.ar      11 UNK        -0.0687 
     10 C10       -80.0113   29.5560  -72.3425 C.ar      11 UNK        -0.0823 
     11 C11       -79.7721   30.2724  -73.5206 C.ar      11 UNK        -0.0830 
     12 C12       -78.5844   30.9967  -73.6543 C.ar      11 UNK        -0.1021 
     13 C13       -77.6147   30.9630  -72.6516 C.ar      11 UNK        -0.0753 
     14 C14       -77.8644   30.2492  -71.4766 C.ar      11 UNK        -0.0933 
     15 C15       -76.2872   31.6704  -72.8676 C.3       11 UNK         0.0166 
     16 S16       -75.2251   30.7092  -73.9916 S.3       11 UNK        -0.2615 
     17 C17       -74.7227   29.3178  -72.9191 C.3       11 UNK        -0.0865 
     18 CA        -73.1821   29.1997  -72.8041 C.3       10 UNK         0.0862 
     19 C         -72.7688   28.1568  -71.7226 C.2       10 UNK         0.5551 
     20 N         -71.9464   27.1576  -72.0210 N.am      10 UNK        -0.7319 
     21 O         -73.1983   28.2647  -70.5769 O.2       10 UNK        -0.5018 
     22 N         -72.5706   28.9739  -74.1212 N.am      10 UNK        -0.4509 
     23 C         -71.3385   29.3563  -74.4775 C.2       10 UNK         0.4899 
     24 O         -70.5951   30.0304  -73.7625 O.2       10 UNK        -0.4839 
     25 CA        -70.8593   28.8831  -75.8665 C.3       9 UNK         0.0222 
     26 CB        -69.3241   28.9279  -76.0185 C.3       9 UNK        -0.1966 
     27 N         -71.3808   27.5571  -76.2313 N.am      9 UNK        -0.4218 
     28 C         -71.2224   26.4135  -75.5426 C.2       9 UNK         0.5020 
     29 O         -70.5512   26.3329  -74.5125 O.2       9 UNK        -0.5274 
     30 CA        -71.9735   25.1642  -76.0357 C.3       8 UNK         0.0270 
     31 CB        -72.5603   24.3706  -74.8545 C.3       8 UNK        -0.1976 
     32 N         -73.0541   25.5098  -76.9643 N.am      8 UNK        -0.4313 
     33 C         -73.0023   25.3233  -78.2896 C.2       8 UNK         0.5041 
     34 O         -72.0562   24.7906  -78.8714 O.2       8 UNK        -0.5577 
     35 CA        -74.1896   25.8372  -79.1216 C.3       7 UNK         0.0284 
     36 CB        -75.2754   24.7551  -79.2295 C.3       7 UNK        -0.1958 
     37 N         -74.7983   27.0737  -78.6255 N.am      7 UNK        -0.4454 
     38 C         -74.1915   28.2493  -78.4249 C.2       7 UNK         0.5089 
     39 O         -72.9820   28.4232  -78.5726 O.2       7 UNK        -0.5125 
     40 CA        -75.0668   29.4317  -77.9611 C.3       6 UNK         0.0408 
     41 CB        -75.7265   30.1346  -79.1621 C.3       6 UNK        -0.1791 
     42 N         -76.0541   29.1008  -76.9227 N.am      6 UNK        -0.4762 
     43 C         -77.1101   28.2750  -76.9925 C.2       6 UNK         0.5007 
     44 O         -77.4496   27.6724  -78.0134 O.2       6 UNK        -0.5032 
     45 CA        -77.8628   28.0186  -75.6717 C.3       5 UNK         0.0783 
     46 C46       -79.4028   28.0852  -75.8587 C.3       11 UNK        -0.0857 
     47 S47       -80.0314   29.7541  -76.2473 S.3       11 UNK        -0.2512 
     48 C48       -80.7838   30.2509  -74.6592 C.3       11 UNK         0.0225 
     49 N         -77.4901   26.7424  -75.0497 N.am      5 UNK        -0.4615 
     50 C         -76.2857   26.1594  -74.9345 C.2       4 UNK         0.5053 
     51 O         -75.2241   26.6246  -75.3548 O.2       4 UNK        -0.5105 
     52 CA        -76.2611   24.8089  -74.2054 C.3       4 UNK         0.0263 
     53 CB        -76.1223   25.0231  -72.6894 C.3       4 UNK        -0.1981 
     54 N         -77.4584   24.0152  -74.4904 N.am      4 UNK        -0.4224 
     55 C         -77.5659   23.1537  -75.5133 C.2       3 UNK         0.4895 
     56 O         -76.6418   22.8915  -76.2831 O.2       3 UNK        -0.5091 
     57 CA        -78.9199   22.4501  -75.7197 C.3       3 UNK         0.0250 
     58 CB        -78.8799   21.0258  -75.1425 C.3       3 UNK        -0.1996 
     59 N         -80.0419   23.1872  -75.1319 N.am      3 UNK        -0.4254 
     60 C         -80.6289   24.2431  -75.7173 C.2       2 UNK         0.5004 
     61 O         -80.3385   24.6443  -76.8438 O.2       2 UNK        -0.5226 
     62 CA        -81.7061   25.0016  -74.9151 C.3       2 UNK         0.0269 
     63 CB        -83.1098   24.5268  -75.3232 C.3       2 UNK        -0.1926 
     64 N         -81.5679   24.8969  -73.4578 N.am      2 UNK        -0.4687 
     65 C         -80.4894   25.2752  -72.7580 C.2       1 UNK         0.5165 
     66 O         -79.4907   25.7785  -73.2736 O.2       1 UNK        -0.5079 
     67 H67       -77.3909   22.6109  -70.2686 H         1 UNK         0.0900 
     68 H68       -78.2846   21.1059  -70.4973 H         1 UNK         0.0900 
     69 H69       -77.3853   21.8122  -71.8429 H         1 UNK         0.0900 
     70 H70       -78.7050   24.4371  -70.2867 H         1 UNK         0.2959 
     71 H71       -81.4246   24.4280  -71.0329 H         1 UNK         0.1079 
     72 H72       -80.8649   25.9861  -69.3758 H         1 UNK         0.0837 
     73 H73       -81.2222   26.9638  -70.7631 H         1 UNK         0.0837 
     74 H74       -80.3749   28.9007  -69.7259 H         1 UNK         0.0685 
     75 H75       -78.7502   29.2403  -69.2072 H         1 UNK         0.0685 
     76 H76       -80.9301   28.9984  -72.2260 H         1 UNK         0.1434 
     77 H77       -78.3907   31.5479  -74.5647 H         1 UNK         0.1329 
     78 H78       -77.1215   30.2286  -70.6912 H         1 UNK         0.1335 
     79 H79       -75.7708   31.8412  -71.9216 H         1 UNK         0.0680 
     80 H80       -76.4654   32.6548  -73.3031 H         1 UNK         0.0680 
     81 H81       -75.1530   28.3965  -73.3119 H         1 UNK         0.1032 
     82 H82       -75.1629   29.4504  -71.9302 H         1 UNK         0.1032 
     83 H83       -72.8182   30.1579  -72.4280 H         1 UNK         0.0461 
     84 H84       -71.6933   26.5046  -71.2973 H         1 UNK         0.3453 
     85 H85       -71.5415   27.0582  -72.9454 H         1 UNK         0.3453 
     86 H86       -73.1072   28.4096  -74.7632 H         1 UNK         0.2984 
     87 H87       -71.2825   29.5847  -76.5867 H         1 UNK         0.0554 
     88 H88       -68.9458   29.9411  -75.8775 H         1 UNK         0.0847 
     89 H89       -69.0143   28.6040  -77.0119 H         1 UNK         0.0847 
     90 H90       -68.8257   28.2910  -75.2869 H         1 UNK         0.0847 
     91 H91       -71.9465   27.5390  -77.0749 H         1 UNK         0.3141 
     92 H92       -71.2361   24.5279  -76.5286 H         1 UNK         0.0743 
     93 H93       -73.1884   24.9989  -74.2224 H         1 UNK         0.0784 
     94 H94       -73.1552   23.5244  -75.1987 H         1 UNK         0.0784 
     95 H95       -71.7679   23.9690  -74.2216 H         1 UNK         0.0784 
     96 H96       -73.8726   25.9597  -76.5578 H         1 UNK         0.3213 
     97 H97       -73.8137   26.0461  -80.1252 H         1 UNK         0.0855 
     98 H98       -75.7306   24.5468  -78.2604 H         1 UNK         0.0814 
     99 H99       -74.8611   23.8181  -79.6043 H         1 UNK         0.0814 
    100 H100      -76.0692   25.0550  -79.9140 H         1 UNK         0.0814 
    101 H101      -75.8037   27.0582  -78.4642 H         1 UNK         0.3105 
    102 H102      -74.3912   30.1509  -77.4950 H         1 UNK         0.0547 
    103 H103      -76.2843   31.0164  -78.8474 H         1 UNK         0.0837 
    104 H104      -76.4128   29.4772  -79.6965 H         1 UNK         0.0837 
    105 H105      -74.9739   30.4660  -79.8788 H         1 UNK         0.0837 
    106 H106      -75.8414   29.4982  -76.0157 H         1 UNK         0.3020 
    107 H107      -77.5751   28.7905  -74.9574 H         1 UNK         0.1245 
    108 H108      -79.8991   27.7483  -74.9488 H         1 UNK         0.0781 
    109 H109      -79.7300   27.3978  -76.6411 H         1 UNK         0.0781 
    110 H110      -81.6124   29.5774  -74.4344 H         1 UNK         0.0836 
    111 H111      -81.2157   31.2466  -74.7678 H         1 UNK         0.0836 
    112 H112      -78.2571   26.2810  -74.5685 H         1 UNK         0.3022 
    113 H113      -75.3837   24.2601  -74.5479 H         1 UNK         0.0747 
    114 H114      -76.0318   24.0738  -72.1625 H         1 UNK         0.0793 
    115 H115      -75.2291   25.6058  -72.4589 H         1 UNK         0.0793 
    116 H116      -76.9756   25.5598  -72.2731 H         1 UNK         0.0793 
    117 H117      -78.2821   24.2291  -73.9414 H         1 UNK         0.3047 
    118 H118      -79.0827   22.3675  -76.7968 H         1 UNK         0.0822 
    119 H119      -79.8257   20.5066  -75.2980 H         1 UNK         0.0807 
    120 H120      -78.6679   21.0250  -74.0734 H         1 UNK         0.0807 
    121 H121      -78.1022   20.4331  -75.6261 H         1 UNK         0.0807 
    122 H122      -80.3256   22.9168  -74.1955 H         1 UNK         0.2946 
    123 H123      -81.6157   26.0572  -75.1785 H         1 UNK         0.1144 
    124 H124      -83.2748   23.4813  -75.0597 H         1 UNK         0.0793 
    125 H125      -83.2550   24.6179  -76.4008 H         1 UNK         0.0793 
    126 H126      -83.8867   25.1224  -74.8433 H         1 UNK         0.0793 
    127 H127      -82.3336   24.4551  -72.9688 H         1 UNK         0.2896 
@<TRIPOS>BOND
     1    1    2 1    
     2    1   67 1    
     3    1   68 1    
     4    1   69 1    
     5    2    3 2    
     6    2    4 am   BACKBONE|DICT|INTERRES
     7    4    5 1    
     8    4   70 1    
     9    5    6 1    
    10    5   65 1    
    11    5   71 1    
    12    6    7 1    
    13    6   72 1    
    14    6   73 1    
    15    7    8 1    
    16    8    9 1    
    17    8   74 1    
    18    8   75 1    
    19    9   10 ar   
    20    9   14 ar   
    21   10   11 ar   
    22   10   76 1    
    23   11   12 ar   
    24   11   48 1    
    25   12   13 ar   
    26   12   77 1    
    27   13   14 ar   
    28   13   15 1    
    29   14   78 1    
    30   15   16 1    
    31   15   79 1    
    32   15   80 1    
    33   16   17 1    
    34   17   18 1    
    35   17   81 1    
    36   17   82 1    
    37   18   19 1    
    38   18   22 1    
    39   18   83 1    
    40   19   20 am   BACKBONE|DICT|INTERRES
    41   19   21 2    
    42   20   84 1    
    43   20   85 1    
    44   22   23 am   BACKBONE|DICT|INTERRES
    45   22   86 1    
    46   23   24 2    
    47   23   25 1    
    48   25   26 1    
    49   25   27 1    
    50   25   87 1    
    51   26   88 1    
    52   26   89 1    
    53   26   90 1    
    54   27   28 am   BACKBONE|DICT|INTERRES
    55   27   91 1    
    56   28   29 2    
    57   28   30 1    
    58   30   31 1    
    59   30   32 1    
    60   30   92 1    
    61   31   93 1    
    62   31   94 1    
    63   31   95 1    
    64   32   33 am   BACKBONE|DICT|INTERRES
    65   32   96 1    
    66   33   34 2    
    67   33   35 1    
    68   35   36 1    
    69   35   37 1    
    70   35   97 1    
    71   36   98 1    
    72   36   99 1    
    73   36  100 1    
    74   37   38 am   BACKBONE|DICT|INTERRES
    75   37  101 1    
    76   38   39 2    
    77   38   40 1    
    78   40   41 1    
    79   40   42 1    
    80   40  102 1    
    81   41  103 1    
    82   41  104 1    
    83   41  105 1    
    84   42   43 am   BACKBONE|DICT|INTERRES
    85   42  106 1    
    86   43   44 2    
    87   43   45 1    
    88   45   46 1    
    89   45   49 1    
    90   45  107 1    
    91   46   47 1    
    92   46  108 1    
    93   46  109 1    
    94   47   48 1    
    95   48  110 1    
    96   48  111 1    
    97   49   50 am   BACKBONE|DICT|INTERRES
    98   49  112 1    
    99   50   51 2    
   100   50   52 1    
   101   52   53 1    
   102   52   54 1    
   103   52  113 1    
   104   53  114 1    
   105   53  115 1    
   106   53  116 1    
   107   54   55 am   BACKBONE|DICT|INTERRES
   108   54  117 1    
   109   55   56 2    
   110   55   57 1    
   111   57   58 1    
   112   57   59 1    
   113   57  118 1    
   114   58  119 1    
   115   58  120 1    
   116   58  121 1    
   117   59   60 am   BACKBONE|DICT|INTERRES
   118   59  122 1    
   119   60   61 2    
   120   60   62 1    
   121   62   63 1    
   122   62   64 1    
   123   62  123 1    
   124   63  124 1    
   125   63  125 1    
   126   63  126 1    
   127   64   65 am   BACKBONE|DICT|INTERRES
   128   64  127 1    
   129   65   66 2    
@<TRIPOS>SUBSTRUCTURE
     1 UNK         1 GROUP             0       ****    0 ROOT    
