@<TRIPOS>MOLECULE
3R135
127   129    1
SMALL
USER_CHARGES


@<TRIPOS>ATOM
      1 CA        -84.2606   28.3491  -72.5325 C.3       0 UNK        -0.1998 
      2 C         -83.5315   28.2331  -73.8626 C.2       0 UNK         0.4909 
      3 O         -84.1710   28.2473  -74.9148 O.2       0 UNK        -0.5240 
      4 N         -82.1972   28.1198  -73.8226 N.am      1 UNK        -0.4739 
      5 CA        -81.3315   27.9919  -75.0050 C.3       1 UNK         0.0864 
      6 C6        -79.8491   28.3045  -74.6803 C.3       11 UNK        -0.0881 
      7 S7        -79.6325   30.0223  -74.1048 S.3       11 UNK        -0.2682 
      8 C8        -79.4756   29.8073  -72.3045 C.3       11 UNK         0.0289 
      9 C9        -78.0411   29.5204  -71.8896 C.ar      11 UNK        -0.0687 
     10 C10       -77.6093   28.2089  -71.6637 C.ar      11 UNK        -0.0823 
     11 C11       -76.2984   27.9589  -71.2457 C.ar      11 UNK        -0.0830 
     12 C12       -75.4197   29.0298  -71.0545 C.ar      11 UNK        -0.1021 
     13 C13       -75.8405   30.3442  -71.2776 C.ar      11 UNK        -0.0753 
     14 C14       -77.1520   30.5819  -71.6963 C.ar      11 UNK        -0.0933 
     15 C15       -74.8915   31.5109  -71.0369 C.3       11 UNK         0.0166 
     16 S16       -74.3010   32.2537  -72.5910 S.3       11 UNK        -0.2615 
     17 C17       -73.2428   30.9234  -73.2508 C.3       11 UNK        -0.0865 
     18 CA        -71.7258   31.2211  -73.1543 C.3       10 UNK         0.0862 
     19 C         -71.2053   31.1684  -71.6919 C.2       10 UNK         0.5551 
     20 N         -70.9608   32.3157  -71.0742 N.am      10 UNK        -0.7319 
     21 O         -71.0561   30.0978  -71.1061 O.2       10 UNK        -0.5018 
     22 N         -70.9991   30.2859  -74.0145 N.am      10 UNK        -0.4509 
     23 C         -69.7273   30.3803  -74.4095 C.2       10 UNK         0.4899 
     24 O         -68.9988   31.3354  -74.1394 O.2       10 UNK        -0.4839 
     25 CA        -69.1680   29.2328  -75.2799 C.3       9 UNK         0.0222 
     26 CB        -68.3620   28.2383  -74.4212 C.3       9 UNK        -0.1966 
     27 N         -70.1605   28.5354  -76.1209 N.am      9 UNK        -0.4218 
     28 C         -71.2033   27.7832  -75.7385 C.2       9 UNK         0.5020 
     29 O         -71.4762   27.5272  -74.5636 O.2       9 UNK        -0.5274 
     30 CA        -72.1255   27.2627  -76.8514 C.3       8 UNK         0.0270 
     31 CB        -71.8859   25.7656  -77.1016 C.3       8 UNK        -0.1976 
     32 N         -73.5298   27.4817  -76.4969 N.am      8 UNK        -0.4313 
     33 C         -74.1137   28.6896  -76.4349 C.2       8 UNK         0.5041 
     34 O         -73.5327   29.7315  -76.7455 O.2       8 UNK        -0.5577 
     35 CA        -75.5776   28.7534  -75.9430 C.3       7 UNK         0.0284 
     36 CB        -76.3152   30.0204  -76.4237 C.3       7 UNK        -0.1958 
     37 N         -76.3460   27.5446  -76.2589 N.am      7 UNK        -0.4454 
     38 C         -76.5809   27.0132  -77.4693 C.2       7 UNK         0.5089 
     39 O         -76.3157   27.5783  -78.5309 O.2       7 UNK        -0.5125 
     40 CA        -77.1843   25.5906  -77.4971 C.3       6 UNK         0.0408 
     41 CB        -76.5893   24.7410  -78.6394 C.3       6 UNK        -0.1791 
     42 N         -77.0872   24.8632  -76.2215 N.am      6 UNK        -0.4762 
     43 C         -75.9742   24.5515  -75.5348 C.2       6 UNK         0.5007 
     44 O         -74.8395   24.8542  -75.9043 O.2       6 UNK        -0.5032 
     45 CA        -76.1646   23.8185  -74.1960 C.3       5 UNK         0.0783 
     46 C46       -76.5689   24.8010  -73.0674 C.3       11 UNK        -0.0857 
     47 S47       -75.1411   25.7597  -72.4598 S.3       11 UNK        -0.2512 
     48 C48       -75.8305   26.5385  -70.9679 C.3       11 UNK         0.0225 
     49 N         -77.1422   22.7402  -74.3535 N.am      5 UNK        -0.4615 
     50 C         -76.8652   21.4337  -74.2425 C.2       4 UNK         0.5053 
     51 O         -75.7714   20.9905  -73.8911 O.2       4 UNK        -0.5105 
     52 CA        -77.9915   20.4403  -74.5921 C.3       4 UNK         0.0263 
     53 CB        -78.7457   20.0165  -73.3215 C.3       4 UNK        -0.1981 
     54 N         -78.9500   20.9685  -75.5658 N.am      4 UNK        -0.4224 
     55 C         -78.6580   21.3015  -76.8314 C.2       3 UNK         0.4895 
     56 O         -77.5733   21.0683  -77.3651 O.2       3 UNK        -0.5091 
     57 CA        -79.7402   22.0454  -77.6379 C.3       3 UNK         0.0250 
     58 CB        -80.3683   21.1063  -78.6809 C.3       3 UNK        -0.1996 
     59 N         -80.8136   22.6711  -76.8518 N.am      3 UNK        -0.4254 
     60 C         -80.6618   23.5960  -75.8933 C.2       2 UNK         0.5004 
     61 O         -79.5707   23.9487  -75.4362 O.2       2 UNK        -0.5226 
     62 CA        -81.9546   24.1885  -75.3118 C.3       2 UNK         0.0269 
     63 CB        -82.4296   23.3494  -74.1145 C.3       2 UNK        -0.1926 
     64 N         -81.7865   25.5777  -74.8796 N.am      2 UNK        -0.4687 
     65 C         -81.4612   26.6085  -75.6755 C.2       1 UNK         0.5165 
     66 O         -81.2832   26.5080  -76.8905 O.2       1 UNK        -0.5079 
     67 H67       -84.8238   29.2811  -72.4940 H         1 UNK         0.0900 
     68 H68       -83.5732   28.3339  -71.6869 H         1 UNK         0.0900 
     69 H69       -84.9609   27.5225  -72.4154 H         1 UNK         0.0900 
     70 H70       -81.7265   28.1297  -72.9304 H         1 UNK         0.2959 
     71 H71       -81.6717   28.7222  -75.7433 H         1 UNK         0.1079 
     72 H72       -79.4510   27.6049  -73.9441 H         1 UNK         0.0837 
     73 H73       -79.2321   28.1847  -75.5733 H         1 UNK         0.0837 
     74 H74       -79.8163   30.7220  -71.8169 H         1 UNK         0.0685 
     75 H75       -80.1423   29.0179  -71.9566 H         1 UNK         0.0685 
     76 H76       -78.2946   27.3839  -71.7992 H         1 UNK         0.1434 
     77 H77       -74.4073   28.8391  -70.7242 H         1 UNK         0.1329 
     78 H78       -77.4826   31.5976  -71.8666 H         1 UNK         0.1335 
     79 H79       -75.4066   32.2776  -70.4564 H         1 UNK         0.0680 
     80 H80       -74.0361   31.1992  -70.4353 H         1 UNK         0.0680 
     81 H81       -73.5233   30.8141  -74.2987 H         1 UNK         0.1032 
     82 H82       -73.4791   29.9657  -72.7862 H         1 UNK         0.1032 
     83 H83       -71.5497   32.2221  -73.5537 H         1 UNK         0.0461 
     84 H84       -70.6333   32.3014  -70.1211 H         1 UNK         0.3453 
     85 H85       -71.0994   33.1968  -71.5440 H         1 UNK         0.3453 
     86 H86       -71.4623   29.4033  -74.2061 H         1 UNK         0.2984 
     87 H87       -68.4710   29.6955  -75.9805 H         1 UNK         0.0554 
     88 H88       -67.9074   27.4604  -75.0344 H         1 UNK         0.0847 
     89 H89       -68.9824   27.7526  -73.6673 H         1 UNK         0.0847 
     90 H90       -67.5546   28.7473  -73.8929 H         1 UNK         0.0847 
     91 H91       -70.0607   28.7089  -77.1122 H         1 UNK         0.3141 
     92 H92       -71.9202   27.8053  -77.7766 H         1 UNK         0.0743 
     93 H93       -72.0673   25.1738  -76.2031 H         1 UNK         0.0784 
     94 H94       -72.5381   25.3851  -77.8882 H         1 UNK         0.0784 
     95 H95       -70.8570   25.5805  -77.4126 H         1 UNK         0.0784 
     96 H96       -74.0545   26.6588  -76.2134 H         1 UNK         0.3213 
     97 H97       -75.5247   28.8005  -74.8535 H         1 UNK         0.0855 
     98 H98       -75.8274   30.9211  -76.0487 H         1 UNK         0.0814 
     99 H99       -77.3441   30.0409  -76.0671 H         1 UNK         0.0814 
    100 H100      -76.3347   30.0894  -77.5115 H         1 UNK         0.0814 
    101 H101      -76.6040   26.9781  -75.4642 H         1 UNK         0.3105 
    102 H102      -78.2509   25.7143  -77.6916 H         1 UNK         0.0547 
    103 H103      -76.8088   25.1821  -79.6123 H         1 UNK         0.0837 
    104 H104      -75.5049   24.6595  -78.5577 H         1 UNK         0.0837 
    105 H105      -76.9988   23.7313  -78.6430 H         1 UNK         0.0837 
    106 H106      -77.9879   24.5773  -75.8364 H         1 UNK         0.3020 
    107 H107      -75.1928   23.3891  -73.9397 H         1 UNK         0.1245 
    108 H108      -76.9647   24.2352  -72.2223 H         1 UNK         0.0781 
    109 H109      -77.3682   25.4769  -73.3778 H         1 UNK         0.0781 
    110 H110      -75.0595   26.5494  -70.1958 H         1 UNK         0.0836 
    111 H111      -76.6471   25.9390  -70.5630 H         1 UNK         0.0836 
    112 H112      -78.0682   23.0166  -74.6664 H         1 UNK         0.3022 
    113 H113      -77.5250   19.5546  -75.0285 H         1 UNK         0.0747 
    114 H114      -79.4944   19.2545  -73.5391 H         1 UNK         0.0793 
    115 H115      -78.0610   19.5939  -72.5846 H         1 UNK         0.0793 
    116 H116      -79.2506   20.8609  -72.8503 H         1 UNK         0.0793 
    117 H117      -79.8719   21.1913  -75.2211 H         1 UNK         0.3047 
    118 H118      -79.2312   22.8506  -78.1709 H         1 UNK         0.0822 
    119 H119      -81.0462   21.6438  -79.3442 H         1 UNK         0.0807 
    120 H120      -80.9279   20.2972  -78.2097 H         1 UNK         0.0807 
    121 H121      -79.6023   20.6492  -79.3094 H         1 UNK         0.0807 
    122 H122      -81.7537   22.4240  -77.1273 H         1 UNK         0.2946 
    123 H123      -82.7249   24.1747  -76.0862 H         1 UNK         0.1144 
    124 H124      -82.6041   22.3123  -74.4044 H         1 UNK         0.0793 
    125 H125      -83.3673   23.7306  -73.7094 H         1 UNK         0.0793 
    126 H126      -81.6937   23.3433  -73.3091 H         1 UNK         0.0793 
    127 H127      -81.9054   25.7623  -73.8948 H         1 UNK         0.2896 
@<TRIPOS>BOND
     1    1    2 1    
     2    1   67 1    
     3    1   68 1    
     4    1   69 1    
     5    2    3 2    
     6    2    4 am   BACKBONE|DICT|INTERRES
     7    4    5 1    
     8    4   70 1    
     9    5    6 1    
    10    5   65 1    
    11    5   71 1    
    12    6    7 1    
    13    6   72 1    
    14    6   73 1    
    15    7    8 1    
    16    8    9 1    
    17    8   74 1    
    18    8   75 1    
    19    9   10 ar   
    20    9   14 ar   
    21   10   11 ar   
    22   10   76 1    
    23   11   12 ar   
    24   11   48 1    
    25   12   13 ar   
    26   12   77 1    
    27   13   14 ar   
    28   13   15 1    
    29   14   78 1    
    30   15   16 1    
    31   15   79 1    
    32   15   80 1    
    33   16   17 1    
    34   17   18 1    
    35   17   81 1    
    36   17   82 1    
    37   18   19 1    
    38   18   22 1    
    39   18   83 1    
    40   19   20 am   BACKBONE|DICT|INTERRES
    41   19   21 2    
    42   20   84 1    
    43   20   85 1    
    44   22   23 am   BACKBONE|DICT|INTERRES
    45   22   86 1    
    46   23   24 2    
    47   23   25 1    
    48   25   26 1    
    49   25   27 1    
    50   25   87 1    
    51   26   88 1    
    52   26   89 1    
    53   26   90 1    
    54   27   28 am   BACKBONE|DICT|INTERRES
    55   27   91 1    
    56   28   29 2    
    57   28   30 1    
    58   30   31 1    
    59   30   32 1    
    60   30   92 1    
    61   31   93 1    
    62   31   94 1    
    63   31   95 1    
    64   32   33 am   BACKBONE|DICT|INTERRES
    65   32   96 1    
    66   33   34 2    
    67   33   35 1    
    68   35   36 1    
    69   35   37 1    
    70   35   97 1    
    71   36   98 1    
    72   36   99 1    
    73   36  100 1    
    74   37   38 am   BACKBONE|DICT|INTERRES
    75   37  101 1    
    76   38   39 2    
    77   38   40 1    
    78   40   41 1    
    79   40   42 1    
    80   40  102 1    
    81   41  103 1    
    82   41  104 1    
    83   41  105 1    
    84   42   43 am   BACKBONE|DICT|INTERRES
    85   42  106 1    
    86   43   44 2    
    87   43   45 1    
    88   45   46 1    
    89   45   49 1    
    90   45  107 1    
    91   46   47 1    
    92   46  108 1    
    93   46  109 1    
    94   47   48 1    
    95   48  110 1    
    96   48  111 1    
    97   49   50 am   BACKBONE|DICT|INTERRES
    98   49  112 1    
    99   50   51 2    
   100   50   52 1    
   101   52   53 1    
   102   52   54 1    
   103   52  113 1    
   104   53  114 1    
   105   53  115 1    
   106   53  116 1    
   107   54   55 am   BACKBONE|DICT|INTERRES
   108   54  117 1    
   109   55   56 2    
   110   55   57 1    
   111   57   58 1    
   112   57   59 1    
   113   57  118 1    
   114   58  119 1    
   115   58  120 1    
   116   58  121 1    
   117   59   60 am   BACKBONE|DICT|INTERRES
   118   59  122 1    
   119   60   61 2    
   120   60   62 1    
   121   62   63 1    
   122   62   64 1    
   123   62  123 1    
   124   63  124 1    
   125   63  125 1    
   126   63  126 1    
   127   64   65 am   BACKBONE|DICT|INTERRES
   128   64  127 1    
   129   65   66 2    
@<TRIPOS>SUBSTRUCTURE
     1 UNK         1 GROUP             0       ****    0 ROOT    
