@<TRIPOS>MOLECULE
3R135
127   129    1
SMALL
USER_CHARGES


@<TRIPOS>ATOM
      1 CA        -81.2616   28.2433  -70.5141 C.3       0 UNK        -0.1998 
      2 C         -81.8217   28.1988  -71.9279 C.2       0 UNK         0.4909 
      3 O         -83.0259   28.0159  -72.1059 O.2       0 UNK        -0.5240 
      4 N         -80.9536   28.3710  -72.9330 N.am      1 UNK        -0.4739 
      5 CA        -81.2995   28.4176  -74.3616 C.3       1 UNK         0.0864 
      6 C6        -80.1092   28.8939  -75.2348 C.3       11 UNK        -0.0881 
      7 S7        -79.3652   30.4678  -74.6810 S.3       11 UNK        -0.2682 
      8 C8        -77.5954   30.0386  -74.5923 C.3       11 UNK         0.0289 
      9 C9        -77.1768   29.5528  -73.2100 C.ar      11 UNK        -0.0687 
     10 C10       -77.6239   28.3216  -72.7177 C.ar      11 UNK        -0.0823 
     11 C11       -77.2509   27.8889  -71.4418 C.ar      11 UNK        -0.0830 
     12 C12       -76.3855   28.6745  -70.6769 C.ar      11 UNK        -0.1021 
     13 C13       -75.8927   29.8837  -71.1739 C.ar      11 UNK        -0.0753 
     14 C14       -76.3097   30.3286  -72.4316 C.ar      11 UNK        -0.0933 
     15 C15       -74.8938   30.6875  -70.3536 C.3       11 UNK         0.0166 
     16 S16       -73.2852   29.8325  -70.3035 S.3       11 UNK        -0.2615 
     17 C17       -72.0903   31.0846  -70.8915 C.3       11 UNK        -0.0865 
     18 CA        -72.3376   31.6687  -72.3117 C.3       10 UNK         0.0862 
     19 C         -71.1277   32.5474  -72.7491 C.2       10 UNK         0.5551 
     20 N         -70.3841   32.1875  -73.7880 N.am      10 UNK        -0.7319 
     21 O         -70.8609   33.5741  -72.1292 O.2       10 UNK        -0.5018 
     22 N         -72.7659   30.6462  -73.2824 N.am      10 UNK        -0.4509 
     23 C         -73.3275   30.9000  -74.4686 C.2       10 UNK         0.4899 
     24 O         -73.4619   32.0394  -74.9181 O.2       10 UNK        -0.4839 
     25 CA        -73.8649   29.6938  -75.2714 C.3       9 UNK         0.0222 
     26 CB        -74.4929   30.1370  -76.6089 C.3       9 UNK        -0.1966 
     27 N         -72.8854   28.6345  -75.5429 N.am      9 UNK        -0.4218 
     28 C         -72.3283   27.8005  -74.6523 C.2       9 UNK         0.5020 
     29 O         -72.5004   27.8740  -73.4350 O.2       9 UNK        -0.5274 
     30 CA        -71.4787   26.6658  -75.2426 C.3       8 UNK         0.0270 
     31 CB        -70.7728   25.8127  -74.1712 C.3       8 UNK        -0.1976 
     32 N         -72.3620   25.8166  -76.0365 N.am      8 UNK        -0.4313 
     33 C         -72.0910   25.3239  -77.2528 C.2       8 UNK         0.5041 
     34 O         -71.0034   25.4572  -77.8156 O.2       8 UNK        -0.5577 
     35 CA        -73.2242   24.5726  -77.9850 C.3       7 UNK         0.0284 
     36 CB        -73.0605   23.0540  -77.8151 C.3       7 UNK        -0.1958 
     37 N         -74.5633   24.9628  -77.5359 N.am      7 UNK        -0.4454 
     38 C         -75.0876   26.1895  -77.6646 C.2       7 UNK         0.5089 
     39 O         -74.5684   27.0756  -78.3428 O.2       7 UNK        -0.5125 
     40 CA        -76.3724   26.5092  -76.8723 C.3       6 UNK         0.0408 
     41 CB        -77.5595   26.7094  -77.8271 C.3       6 UNK        -0.1791 
     42 N         -76.7419   25.5242  -75.8499 N.am      6 UNK        -0.4762 
     43 C         -76.0070   25.1475  -74.7915 C.2       6 UNK         0.5007 
     44 O         -74.8797   25.5815  -74.5563 O.2       6 UNK        -0.5032 
     45 CA        -76.6022   24.0336  -73.9088 C.3       5 UNK         0.0783 
     46 C46       -77.5817   24.5838  -72.8451 C.3       11 UNK        -0.0857 
     47 S47       -76.7333   25.1712  -71.3452 S.3       11 UNK        -0.2512 
     48 C48       -77.7793   26.5810  -70.8732 C.3       11 UNK         0.0225 
     49 N         -77.2545   23.0170  -74.7362 N.am      5 UNK        -0.4615 
     50 C         -76.6203   22.0420  -75.3984 C.2       4 UNK         0.5053 
     51 O         -75.4026   21.8712  -75.3602 O.2       4 UNK        -0.5105 
     52 CA        -77.4905   21.0979  -76.2474 C.3       4 UNK         0.0263 
     53 CB        -77.8892   19.8587  -75.4301 C.3       4 UNK        -0.1981 
     54 N         -78.6994   21.7464  -76.7643 N.am      4 UNK        -0.4224 
     55 C         -78.7031   22.6495  -77.7547 C.2       3 UNK         0.4895 
     56 O         -77.6959   22.9894  -78.3757 O.2       3 UNK        -0.5091 
     57 CA        -80.0541   23.3075  -78.0909 C.3       3 UNK         0.0250 
     58 CB        -80.8216   22.4621  -79.1201 C.3       3 UNK        -0.1996 
     59 N         -80.9186   23.5724  -76.9312 N.am      3 UNK        -0.4254 
     60 C         -80.5803   24.3393  -75.8857 C.2       2 UNK         0.5004 
     61 O         -79.4520   24.8063  -75.7180 O.2       2 UNK        -0.5226 
     62 CA        -81.6595   24.6082  -74.8255 C.3       2 UNK         0.0269 
     63 CB        -81.5600   23.5830  -73.6851 C.3       2 UNK        -0.1926 
     64 N         -81.4869   25.9554  -74.2768 N.am      2 UNK        -0.4687 
     65 C         -81.8266   27.0786  -74.9256 C.2       1 UNK         0.5165 
     66 O         -82.4958   27.0855  -75.9604 O.2       1 UNK        -0.5079 
     67 H67       -80.2239   28.5766  -70.4967 H         1 UNK         0.0900 
     68 H68       -81.8440   28.9312  -69.9018 H         1 UNK         0.0900 
     69 H69       -81.3123   27.2550  -70.0582 H         1 UNK         0.0900 
     70 H70       -79.9920   28.5913  -72.7174 H         1 UNK         0.2959 
     71 H71       -82.1096   29.1422  -74.4712 H         1 UNK         0.1079 
     72 H72       -80.4379   29.0409  -76.2658 H         1 UNK         0.0837 
     73 H73       -79.3415   28.1201  -75.2832 H         1 UNK         0.0837 
     74 H74       -77.3441   29.2907  -75.3444 H         1 UNK         0.0685 
     75 H75       -77.0286   30.9313  -74.8595 H         1 UNK         0.0685 
     76 H76       -78.2615   27.6992  -73.3260 H         1 UNK         0.1434 
     77 H77       -76.0713   28.3334  -69.6997 H         1 UNK         0.1329 
     78 H78       -75.9396   31.2702  -72.8133 H         1 UNK         0.1335 
     79 H79       -75.2669   30.7989  -69.3346 H         1 UNK         0.0680 
     80 H80       -74.7874   31.6972  -70.7495 H         1 UNK         0.0680 
     81 H81       -72.0555   31.8917  -70.1571 H         1 UNK         0.1032 
     82 H82       -71.1073   30.6108  -70.8542 H         1 UNK         0.1032 
     83 H83       -73.1730   32.3654  -72.2293 H         1 UNK         0.0461 
     84 H84       -69.6048   32.7634  -74.0647 H         1 UNK         0.3453 
     85 H85       -70.6068   31.3519  -74.3042 H         1 UNK         0.3453 
     86 H86       -72.6816   29.6733  -72.9939 H         1 UNK         0.2984 
     87 H87       -74.6565   29.2483  -74.6668 H         1 UNK         0.0554 
     88 H88       -75.2392   30.9181  -76.4614 H         1 UNK         0.0847 
     89 H89       -74.9985   29.3161  -77.1118 H         1 UNK         0.0847 
     90 H90       -73.7422   30.5353  -77.2924 H         1 UNK         0.0847 
     91 H91       -72.6720   28.4792  -76.5182 H         1 UNK         0.3141 
     92 H92       -70.7182   27.1269  -75.8765 H         1 UNK         0.0743 
     93 H93       -71.4898   25.3236  -73.5103 H         1 UNK         0.0784 
     94 H94       -70.1552   25.0386  -74.6267 H         1 UNK         0.0784 
     95 H95       -70.1197   26.4274  -73.5504 H         1 UNK         0.0784 
     96 H96       -73.2900   25.6760  -75.6390 H         1 UNK         0.3213 
     97 H97       -73.1448   24.8127  -79.0473 H         1 UNK         0.0855 
     98 H98       -73.1294   22.7558  -76.7680 H         1 UNK         0.0814 
     99 H99       -72.0892   22.7228  -78.1850 H         1 UNK         0.0814 
    100 H100      -73.8225   22.5065  -78.3704 H         1 UNK         0.0814 
    101 H101      -75.0722   24.2916  -76.9783 H         1 UNK         0.3105 
    102 H102      -76.1936   27.4478  -76.3474 H         1 UNK         0.0547 
    103 H103      -77.3494   27.4949  -78.5542 H         1 UNK         0.0837 
    104 H104      -77.7801   25.7992  -78.3852 H         1 UNK         0.0837 
    105 H105      -78.4624   26.9990  -77.2904 H         1 UNK         0.0837 
    106 H106      -77.6797   25.1334  -75.9313 H         1 UNK         0.3020 
    107 H107      -75.7679   23.5508  -73.3934 H         1 UNK         0.1245 
    108 H108      -78.2527   23.7905  -72.5125 H         1 UNK         0.0781 
    109 H109      -78.2275   25.3577  -73.2623 H         1 UNK         0.0781 
    110 H110      -77.8085   26.6386  -69.7839 H         1 UNK         0.0836 
    111 H111      -78.8101   26.4115  -71.1869 H         1 UNK         0.0836 
    112 H112      -78.2461   23.1387  -74.8877 H         1 UNK         0.3022 
    113 H113      -76.8868   20.7674  -77.0957 H         1 UNK         0.0747 
    114 H114      -78.4459   19.1449  -76.0375 H         1 UNK         0.0793 
    115 H115      -77.0063   19.3406  -75.0527 H         1 UNK         0.0793 
    116 H116      -78.5054   20.1214  -74.5692 H         1 UNK         0.0793 
    117 H117      -79.5755   21.5152  -76.3187 H         1 UNK         0.3047 
    118 H118      -79.8311   24.2736  -78.5487 H         1 UNK         0.0822 
    119 H119      -81.7221   22.9728  -79.4619 H         1 UNK         0.0807 
    120 H120      -81.1177   21.4954  -78.7106 H         1 UNK         0.0807 
    121 H121      -80.2086   22.2685  -80.0017 H         1 UNK         0.0807 
    122 H122      -81.8593   23.2076  -76.9817 H         1 UNK         0.2946 
    123 H123      -82.6464   24.5340  -75.2883 H         1 UNK         0.1144 
    124 H124      -82.3242   23.7599  -72.9279 H         1 UNK         0.0793 
    125 H125      -80.5883   23.6157  -73.1921 H         1 UNK         0.0793 
    126 H126      -81.7039   22.5675  -74.0566 H         1 UNK         0.0793 
    127 H127      -80.9229   26.0408  -73.4454 H         1 UNK         0.2896 
@<TRIPOS>BOND
     1    1    2 1    
     2    1   67 1    
     3    1   68 1    
     4    1   69 1    
     5    2    3 2    
     6    2    4 am   BACKBONE|DICT|INTERRES
     7    4    5 1    
     8    4   70 1    
     9    5    6 1    
    10    5   65 1    
    11    5   71 1    
    12    6    7 1    
    13    6   72 1    
    14    6   73 1    
    15    7    8 1    
    16    8    9 1    
    17    8   74 1    
    18    8   75 1    
    19    9   10 ar   
    20    9   14 ar   
    21   10   11 ar   
    22   10   76 1    
    23   11   12 ar   
    24   11   48 1    
    25   12   13 ar   
    26   12   77 1    
    27   13   14 ar   
    28   13   15 1    
    29   14   78 1    
    30   15   16 1    
    31   15   79 1    
    32   15   80 1    
    33   16   17 1    
    34   17   18 1    
    35   17   81 1    
    36   17   82 1    
    37   18   19 1    
    38   18   22 1    
    39   18   83 1    
    40   19   20 am   BACKBONE|DICT|INTERRES
    41   19   21 2    
    42   20   84 1    
    43   20   85 1    
    44   22   23 am   BACKBONE|DICT|INTERRES
    45   22   86 1    
    46   23   24 2    
    47   23   25 1    
    48   25   26 1    
    49   25   27 1    
    50   25   87 1    
    51   26   88 1    
    52   26   89 1    
    53   26   90 1    
    54   27   28 am   BACKBONE|DICT|INTERRES
    55   27   91 1    
    56   28   29 2    
    57   28   30 1    
    58   30   31 1    
    59   30   32 1    
    60   30   92 1    
    61   31   93 1    
    62   31   94 1    
    63   31   95 1    
    64   32   33 am   BACKBONE|DICT|INTERRES
    65   32   96 1    
    66   33   34 2    
    67   33   35 1    
    68   35   36 1    
    69   35   37 1    
    70   35   97 1    
    71   36   98 1    
    72   36   99 1    
    73   36  100 1    
    74   37   38 am   BACKBONE|DICT|INTERRES
    75   37  101 1    
    76   38   39 2    
    77   38   40 1    
    78   40   41 1    
    79   40   42 1    
    80   40  102 1    
    81   41  103 1    
    82   41  104 1    
    83   41  105 1    
    84   42   43 am   BACKBONE|DICT|INTERRES
    85   42  106 1    
    86   43   44 2    
    87   43   45 1    
    88   45   46 1    
    89   45   49 1    
    90   45  107 1    
    91   46   47 1    
    92   46  108 1    
    93   46  109 1    
    94   47   48 1    
    95   48  110 1    
    96   48  111 1    
    97   49   50 am   BACKBONE|DICT|INTERRES
    98   49  112 1    
    99   50   51 2    
   100   50   52 1    
   101   52   53 1    
   102   52   54 1    
   103   52  113 1    
   104   53  114 1    
   105   53  115 1    
   106   53  116 1    
   107   54   55 am   BACKBONE|DICT|INTERRES
   108   54  117 1    
   109   55   56 2    
   110   55   57 1    
   111   57   58 1    
   112   57   59 1    
   113   57  118 1    
   114   58  119 1    
   115   58  120 1    
   116   58  121 1    
   117   59   60 am   BACKBONE|DICT|INTERRES
   118   59  122 1    
   119   60   61 2    
   120   60   62 1    
   121   62   63 1    
   122   62   64 1    
   123   62  123 1    
   124   63  124 1    
   125   63  125 1    
   126   63  126 1    
   127   64   65 am   BACKBONE|DICT|INTERRES
   128   64  127 1    
   129   65   66 2    
@<TRIPOS>SUBSTRUCTURE
     1 UNK         1 GROUP             0       ****    0 ROOT    
