@<TRIPOS>MOLECULE
3R135
127   129    1
SMALL
USER_CHARGES


@<TRIPOS>ATOM
      1 CA        -82.6280   23.7423  -71.0064 C.3       0 UNK        -0.1998 
      2 C         -81.8649   24.9620  -71.5036 C.2       0 UNK         0.4909 
      3 O         -80.8017   25.2611  -70.9626 O.2       0 UNK        -0.5240 
      4 N         -82.4182   25.6397  -72.5225 N.am      1 UNK        -0.4739 
      5 CA        -81.9135   26.8203  -73.2471 C.3       1 UNK         0.0864 
      6 C6        -82.1623   28.1877  -72.5337 C.3       11 UNK        -0.0881 
      7 S7        -81.5055   28.3913  -70.8419 S.3       11 UNK        -0.2682 
      8 C8        -80.2858   29.7367  -71.0194 C.3       11 UNK         0.0289 
      9 C9        -78.9227   29.2867  -71.5386 C.ar      11 UNK        -0.0687 
     10 C10       -78.3186   28.1129  -71.0711 C.ar      11 UNK        -0.0823 
     11 C11       -77.0414   27.7442  -71.5049 C.ar      11 UNK        -0.0830 
     12 C12       -76.3650   28.5565  -72.4182 C.ar      11 UNK        -0.1021 
     13 C13       -76.9517   29.7360  -72.8861 C.ar      11 UNK        -0.0753 
     14 C14       -78.2280   30.0959  -72.4432 C.ar      11 UNK        -0.0933 
     15 C15       -76.2014   30.6140  -73.8733 C.3       11 UNK         0.0166 
     16 S16       -74.9181   31.5921  -73.0347 S.3       11 UNK        -0.2615 
     17 C17       -74.0199   32.3114  -74.4554 C.3       11 UNK        -0.0865 
     18 CA        -73.2127   31.2670  -75.2811 C.3       10 UNK         0.0862 
     19 C         -72.4443   31.8730  -76.4896 C.2       10 UNK         0.5551 
     20 N         -71.6986   31.0586  -77.2257 N.am      10 UNK        -0.7319 
     21 O         -72.5256   33.0667  -76.7707 O.2       10 UNK        -0.5018 
     22 N         -72.3791   30.3860  -74.4516 N.am      10 UNK        -0.4509 
     23 C         -71.2927   30.7169  -73.7447 C.2       10 UNK         0.4899 
     24 O         -70.8491   31.8626  -73.6619 O.2       10 UNK        -0.4839 
     25 CA        -70.5479   29.5763  -73.0173 C.3       9 UNK         0.0222 
     26 CB        -70.9729   29.4929  -71.5374 C.3       9 UNK        -0.1966 
     27 N         -70.6342   28.2682  -73.6916 N.am      9 UNK        -0.4218 
     28 C         -71.7076   27.4800  -73.8456 C.2       9 UNK         0.5020 
     29 O         -72.8065   27.6903  -73.3276 O.2       9 UNK        -0.5274 
     30 CA        -71.5560   26.3017  -74.8192 C.3       8 UNK         0.0270 
     31 CB        -71.5104   24.9699  -74.0550 C.3       8 UNK        -0.1976 
     32 N         -72.6624   26.2954  -75.7834 N.am      8 UNK        -0.4313 
     33 C         -72.8865   27.2741  -76.6775 C.2       8 UNK         0.5041 
     34 O         -72.1115   28.2196  -76.8429 O.2       8 UNK        -0.5577 
     35 CA        -74.1963   27.2384  -77.4942 C.3       7 UNK         0.0284 
     36 CB        -74.0226   27.8219  -78.9120 C.3       7 UNK        -0.1958 
     37 N         -74.8557   25.9300  -77.5420 N.am      7 UNK        -0.4454 
     38 C         -74.3832   24.7862  -78.0589 C.2       7 UNK         0.5089 
     39 O         -73.3022   24.6862  -78.6413 O.2       7 UNK        -0.5125 
     40 CA        -75.2692   23.5400  -77.8497 C.3       6 UNK         0.0408 
     41 CB        -74.4996   22.2182  -78.0500 C.3       6 UNK        -0.1791 
     42 N         -75.9611   23.5407  -76.5532 N.am      6 UNK        -0.4762 
     43 C         -75.4060   23.6159  -75.3317 C.2       6 UNK         0.5007 
     44 O         -74.1906   23.6749  -75.1510 O.2       6 UNK        -0.5032 
     45 CA        -76.3427   23.6735  -74.1035 C.3       5 UNK         0.0783 
     46 C46       -76.1448   25.0002  -73.3284 C.3       11 UNK        -0.0857 
     47 S47       -77.0172   24.9775  -71.7296 S.3       11 UNK        -0.2512 
     48 C48       -76.3793   26.4915  -70.9503 C.3       11 UNK         0.0225 
     49 N         -77.7512   23.4623  -74.4549 N.am      5 UNK        -0.4615 
     50 C         -78.3007   22.2838  -74.7743 C.2       4 UNK         0.5053 
     51 O         -77.7031   21.2094  -74.7200 O.2       4 UNK        -0.5105 
     52 CA        -79.7452   22.3245  -75.2973 C.3       4 UNK         0.0263 
     53 CB        -80.7492   22.2330  -74.1373 C.3       4 UNK        -0.1981 
     54 N         -79.9962   23.5376  -76.0833 N.am      4 UNK        -0.4224 
     55 C         -79.5422   23.7314  -77.3313 C.2       3 UNK         0.4895 
     56 O         -78.9210   22.8822  -77.9695 O.2       3 UNK        -0.5091 
     57 CA        -79.7884   25.1090  -77.9709 C.3       3 UNK         0.0250 
     58 CB        -81.1429   25.1313  -78.6968 C.3       3 UNK        -0.1996 
     59 N         -79.7326   26.2115  -77.0093 N.am      3 UNK        -0.4254 
     60 C         -78.6208   26.6273  -76.3859 C.2       2 UNK         0.5004 
     61 O         -77.5022   26.1558  -76.5864 O.2       2 UNK        -0.5226 
     62 CA        -78.7884   27.7421  -75.3396 C.3       2 UNK         0.0269 
     63 CB        -78.6474   29.1127  -76.0211 C.3       2 UNK        -0.1926 
     64 N         -80.0548   27.6987  -74.5954 N.am      2 UNK        -0.4687 
     65 C         -80.5182   26.6489  -73.8977 C.2       1 UNK         0.5165 
     66 O         -79.9384   25.5605  -73.8743 O.2       1 UNK        -0.5079 
     67 H67       -82.0005   22.8542  -71.0772 H         1 UNK         0.0900 
     68 H68       -82.9104   23.8775  -69.9627 H         1 UNK         0.0900 
     69 H69       -83.5351   23.5618  -71.5829 H         1 UNK         0.0900 
     70 H70       -83.2895   25.2843  -72.8899 H         1 UNK         0.2959 
     71 H71       -82.5637   26.8474  -74.1233 H         1 UNK         0.1079 
     72 H72       -83.2409   28.3279  -72.4482 H         1 UNK         0.0837 
     73 H73       -81.8336   29.0240  -73.1513 H         1 UNK         0.0837 
     74 H74       -80.1355   30.1878  -70.0379 H         1 UNK         0.0685 
     75 H75       -80.7069   30.5203  -71.6512 H         1 UNK         0.0685 
     76 H76       -78.8391   27.4845  -70.3609 H         1 UNK         0.1434 
     77 H77       -75.3733   28.2823  -72.7534 H         1 UNK         0.1329 
     78 H78       -78.6754   31.0150  -72.7959 H         1 UNK         0.1335 
     79 H79       -75.7550   29.9732  -74.6330 H         1 UNK         0.0680 
     80 H80       -76.8831   31.2883  -74.3937 H         1 UNK         0.0680 
     81 H81       -73.3488   33.0813  -74.0707 H         1 UNK         0.1032 
     82 H82       -74.7364   32.8303  -75.0945 H         1 UNK         0.1032 
     83 H83       -73.9396   30.6053  -75.7502 H         1 UNK         0.0461 
     84 H84       -71.1898   31.4236  -78.0144 H         1 UNK         0.3453 
     85 H85       -71.6913   30.0593  -77.0305 H         1 UNK         0.3453 
     86 H86       -72.6704   29.4171  -74.4118 H         1 UNK         0.2984 
     87 H87       -69.4893   29.8402  -73.0361 H         1 UNK         0.0554 
     88 H88       -70.7620   30.4309  -71.0222 H         1 UNK         0.0847 
     89 H89       -70.4341   28.7050  -71.0114 H         1 UNK         0.0847 
     90 H90       -72.0410   29.3026  -71.4278 H         1 UNK         0.0847 
     91 H91       -69.7990   28.0068  -74.1981 H         1 UNK         0.3141 
     92 H92       -70.6257   26.4102  -75.3807 H         1 UNK         0.0743 
     93 H93       -70.6557   24.9376  -73.3782 H         1 UNK         0.0784 
     94 H94       -71.4184   24.1234  -74.7359 H         1 UNK         0.0784 
     95 H95       -72.4076   24.8203  -73.4527 H         1 UNK         0.0784 
     96 H96       -73.3323   25.5395  -75.6961 H         1 UNK         0.3213 
     97 H97       -74.8878   27.8908  -76.9585 H         1 UNK         0.0855 
     98 H98       -73.2888   27.2620  -79.4923 H         1 UNK         0.0814 
     99 H99       -73.6813   28.8572  -78.8716 H         1 UNK         0.0814 
    100 H100      -74.9635   27.8151  -79.4621 H         1 UNK         0.0814 
    101 H101      -75.7813   25.8986  -77.1123 H         1 UNK         0.3105 
    102 H102      -76.0495   23.5894  -78.6106 H         1 UNK         0.0547 
    103 H103      -75.1511   21.3556  -77.9105 H         1 UNK         0.0837 
    104 H104      -73.6660   22.1259  -77.3530 H         1 UNK         0.0837 
    105 H105      -74.0889   22.1530  -79.0582 H         1 UNK         0.0837 
    106 H106      -76.9710   23.5385  -76.6030 H         1 UNK         0.3020 
    107 H107      -76.0310   22.8529  -73.4531 H         1 UNK         0.1245 
    108 H108      -76.4977   25.8495  -73.9150 H         1 UNK         0.0781 
    109 H109      -75.0865   25.1815  -73.1286 H         1 UNK         0.0781 
    110 H110      -75.2952   26.5395  -71.0675 H         1 UNK         0.0836 
    111 H111      -76.5638   26.4345  -69.8766 H         1 UNK         0.0836 
    112 H112      -78.3443   24.2852  -74.4428 H         1 UNK         0.3022 
    113 H113      -79.8941   21.4565  -75.9436 H         1 UNK         0.0747 
    114 H114      -81.7782   22.2723  -74.4948 H         1 UNK         0.0793 
    115 H115      -80.6291   21.2946  -73.5945 H         1 UNK         0.0793 
    116 H116      -80.6100   23.0405  -73.4190 H         1 UNK         0.0793 
    117 H117      -80.4197   24.3128  -75.5893 H         1 UNK         0.3047 
    118 H118      -79.0019   25.2713  -78.7115 H         1 UNK         0.0822 
    119 H119      -81.2943   26.0724  -79.2259 H         1 UNK         0.0807 
    120 H120      -81.9761   24.9952  -78.0062 H         1 UNK         0.0807 
    121 H121      -81.2007   24.3328  -79.4381 H         1 UNK         0.0807 
    122 H122      -80.6031   26.6718  -76.7875 H         1 UNK         0.2946 
    123 H123      -77.9846   27.6266  -74.6110 H         1 UNK         0.1144 
    124 H124      -78.7479   29.9290  -75.3075 H         1 UNK         0.0793 
    125 H125      -79.4009   29.2581  -76.7963 H         1 UNK         0.0793 
    126 H126      -77.6695   29.2131  -76.4943 H         1 UNK         0.0793 
    127 H127      -80.5965   28.5501  -74.5994 H         1 UNK         0.2896 
@<TRIPOS>BOND
     1    1    2 1    
     2    1   67 1    
     3    1   68 1    
     4    1   69 1    
     5    2    3 2    
     6    2    4 am   BACKBONE|DICT|INTERRES
     7    4    5 1    
     8    4   70 1    
     9    5    6 1    
    10    5   65 1    
    11    5   71 1    
    12    6    7 1    
    13    6   72 1    
    14    6   73 1    
    15    7    8 1    
    16    8    9 1    
    17    8   74 1    
    18    8   75 1    
    19    9   10 ar   
    20    9   14 ar   
    21   10   11 ar   
    22   10   76 1    
    23   11   12 ar   
    24   11   48 1    
    25   12   13 ar   
    26   12   77 1    
    27   13   14 ar   
    28   13   15 1    
    29   14   78 1    
    30   15   16 1    
    31   15   79 1    
    32   15   80 1    
    33   16   17 1    
    34   17   18 1    
    35   17   81 1    
    36   17   82 1    
    37   18   19 1    
    38   18   22 1    
    39   18   83 1    
    40   19   20 am   BACKBONE|DICT|INTERRES
    41   19   21 2    
    42   20   84 1    
    43   20   85 1    
    44   22   23 am   BACKBONE|DICT|INTERRES
    45   22   86 1    
    46   23   24 2    
    47   23   25 1    
    48   25   26 1    
    49   25   27 1    
    50   25   87 1    
    51   26   88 1    
    52   26   89 1    
    53   26   90 1    
    54   27   28 am   BACKBONE|DICT|INTERRES
    55   27   91 1    
    56   28   29 2    
    57   28   30 1    
    58   30   31 1    
    59   30   32 1    
    60   30   92 1    
    61   31   93 1    
    62   31   94 1    
    63   31   95 1    
    64   32   33 am   BACKBONE|DICT|INTERRES
    65   32   96 1    
    66   33   34 2    
    67   33   35 1    
    68   35   36 1    
    69   35   37 1    
    70   35   97 1    
    71   36   98 1    
    72   36   99 1    
    73   36  100 1    
    74   37   38 am   BACKBONE|DICT|INTERRES
    75   37  101 1    
    76   38   39 2    
    77   38   40 1    
    78   40   41 1    
    79   40   42 1    
    80   40  102 1    
    81   41  103 1    
    82   41  104 1    
    83   41  105 1    
    84   42   43 am   BACKBONE|DICT|INTERRES
    85   42  106 1    
    86   43   44 2    
    87   43   45 1    
    88   45   46 1    
    89   45   49 1    
    90   45  107 1    
    91   46   47 1    
    92   46  108 1    
    93   46  109 1    
    94   47   48 1    
    95   48  110 1    
    96   48  111 1    
    97   49   50 am   BACKBONE|DICT|INTERRES
    98   49  112 1    
    99   50   51 2    
   100   50   52 1    
   101   52   53 1    
   102   52   54 1    
   103   52  113 1    
   104   53  114 1    
   105   53  115 1    
   106   53  116 1    
   107   54   55 am   BACKBONE|DICT|INTERRES
   108   54  117 1    
   109   55   56 2    
   110   55   57 1    
   111   57   58 1    
   112   57   59 1    
   113   57  118 1    
   114   58  119 1    
   115   58  120 1    
   116   58  121 1    
   117   59   60 am   BACKBONE|DICT|INTERRES
   118   59  122 1    
   119   60   61 2    
   120   60   62 1    
   121   62   63 1    
   122   62   64 1    
   123   62  123 1    
   124   63  124 1    
   125   63  125 1    
   126   63  126 1    
   127   64   65 am   BACKBONE|DICT|INTERRES
   128   64  127 1    
   129   65   66 2    
@<TRIPOS>SUBSTRUCTURE
     1 UNK         1 GROUP             0       ****    0 ROOT    
