@<TRIPOS>MOLECULE
3R135
127   129    1
SMALL
USER_CHARGES


@<TRIPOS>ATOM
      1 CA        -77.5875   22.3310  -75.3500 C.3       0 UNK        -0.1998 
      2 C         -78.6596   22.4530  -74.2786 C.2       0 UNK         0.4909 
      3 O         -79.1347   21.4383  -73.7679 O.2       0 UNK        -0.5240 
      4 N         -79.0745   23.6838  -73.9547 N.am      1 UNK        -0.4739 
      5 CA        -80.1311   23.9994  -72.9867 C.3       1 UNK         0.0864 
      6 C6        -79.9359   25.4075  -72.3624 C.3       11 UNK        -0.0881 
      7 S7        -78.3912   25.5154  -71.3989 S.3       11 UNK        -0.2682 
      8 C8        -78.5759   27.1266  -70.5673 C.3       11 UNK         0.0289 
      9 C9        -77.6960   28.2001  -71.1946 C.ar      11 UNK        -0.0687 
     10 C10       -78.2597   29.2610  -71.9141 C.ar      11 UNK        -0.0823 
     11 C11       -77.4434   30.2625  -72.4530 C.ar      11 UNK        -0.0830 
     12 C12       -76.0598   30.1883  -72.2791 C.ar      11 UNK        -0.1021 
     13 C13       -75.4856   29.1463  -71.5469 C.ar      11 UNK        -0.0753 
     14 C14       -76.3093   28.1526  -71.0109 C.ar      11 UNK        -0.0933 
     15 C15       -73.9773   29.0985  -71.3472 C.3       11 UNK         0.0166 
     16 S16       -73.3445   30.6447  -70.6104 S.3       11 UNK        -0.2615 
     17 C17       -71.5499   30.5077  -70.9136 C.3       11 UNK        -0.0865 
     18 CA        -71.0947   31.2407  -72.2061 C.3       10 UNK         0.0862 
     19 C         -69.5390   31.2630  -72.2930 C.2       10 UNK         0.5551 
     20 N         -68.9046   30.5300  -73.2015 N.am      10 UNK        -0.7319 
     21 O         -68.8964   31.9629  -71.5143 O.2       10 UNK        -0.5018 
     22 N         -71.7627   30.6783  -73.3865 N.am      10 UNK        -0.4509 
     23 C         -71.7626   31.1742  -74.6294 C.2       10 UNK         0.4899 
     24 O         -71.3152   32.2822  -74.9273 O.2       10 UNK        -0.4839 
     25 CA        -72.3538   30.2508  -75.7206 C.3       9 UNK         0.0222 
     26 CB        -71.7146   30.4841  -77.1052 C.3       9 UNK        -0.1966 
     27 N         -72.3220   28.8200  -75.3619 N.am      9 UNK        -0.4218 
     28 C         -71.2291   28.1004  -75.0460 C.2       9 UNK         0.5020 
     29 O         -70.0852   28.5528  -75.1154 O.2       9 UNK        -0.5274 
     30 CA        -71.4051   26.6847  -74.4730 C.3       8 UNK         0.0270 
     31 CB        -71.0442   26.6804  -72.9706 C.3       8 UNK        -0.1976 
     32 N         -72.7364   26.1033  -74.6765 N.am      8 UNK        -0.4313 
     33 C         -73.0042   24.7924  -74.5710 C.2       8 UNK         0.5041 
     34 O         -72.1640   23.9367  -74.2885 O.2       8 UNK        -0.5577 
     35 CA        -74.4576   24.3511  -74.8251 C.3       7 UNK         0.0284 
     36 CB        -75.2687   24.5157  -73.5270 C.3       7 UNK        -0.1958 
     37 N         -75.1194   25.0978  -75.8968 N.am      7 UNK        -0.4454 
     38 C         -74.6629   25.2786  -77.1455 C.2       7 UNK         0.5089 
     39 O         -73.7026   24.6701  -77.6178 O.2       7 UNK        -0.5125 
     40 CA        -75.3650   26.3503  -78.0072 C.3       6 UNK         0.0408 
     41 CB        -76.0913   25.6897  -79.1904 C.3       6 UNK        -0.1791 
     42 N         -76.3209   27.2045  -77.2907 N.am      6 UNK        -0.4762 
     43 C         -76.0942   27.9631  -76.2063 C.2       6 UNK         0.5007 
     44 O         -74.9869   28.0746  -75.6740 O.2       6 UNK        -0.5032 
     45 CA        -77.3161   28.6478  -75.5593 C.3       5 UNK         0.0783 
     46 C46       -77.2007   30.1915  -75.6253 C.3       11 UNK        -0.0857 
     47 S47       -78.6469   31.0104  -74.8596 S.3       11 UNK        -0.2512 
     48 C48       -78.0413   31.4475  -73.2001 C.3       11 UNK         0.0225 
     49 N         -78.6113   28.1894  -76.0793 N.am      5 UNK        -0.4615 
     50 C         -79.1425   26.9708  -75.9408 C.2       4 UNK         0.5053 
     51 O         -78.5293   26.0104  -75.4677 O.2       4 UNK        -0.5105 
     52 CA        -80.6171   26.8226  -76.3641 C.3       4 UNK         0.0263 
     53 CB        -81.0778   27.8521  -77.4232 C.3       4 UNK        -0.1981 
     54 N         -80.9505   25.4589  -76.7792 N.am      4 UNK        -0.4224 
     55 C         -80.4844   24.7888  -77.8444 C.2       3 UNK         0.4895 
     56 O         -79.6969   25.2690  -78.6610 O.2       3 UNK        -0.5091 
     57 CA        -80.9730   23.3361  -78.0304 C.3       3 UNK         0.0250 
     58 CB        -79.8661   22.4338  -78.6061 C.3       3 UNK        -0.1996 
     59 N         -81.4572   22.7567  -76.7736 N.am      3 UNK        -0.4254 
     60 C         -82.7339   22.7237  -76.3648 C.2       2 UNK         0.5004 
     61 O         -83.6879   23.0813  -77.0549 O.2       2 UNK        -0.5226 
     62 CA        -82.9749   22.2651  -74.9134 C.3       2 UNK         0.0269 
     63 CB        -83.2332   20.7511  -74.8591 C.3       2 UNK        -0.1926 
     64 N         -81.8523   22.6000  -74.0283 N.am      2 UNK        -0.4687 
     65 C         -81.4949   23.8472  -73.6888 C.2       1 UNK         0.5165 
     66 O         -82.1505   24.8432  -73.9989 O.2       1 UNK        -0.5079 
     67 H67       -77.8596   21.5596  -76.0692 H         1 UNK         0.0900 
     68 H68       -76.6389   22.0455  -74.8975 H         1 UNK         0.0900 
     69 H69       -77.4463   23.2671  -75.8907 H         1 UNK         0.0900 
     70 H70       -78.7005   24.4923  -74.4495 H         1 UNK         0.2959 
     71 H71       -80.1039   23.2701  -72.1736 H         1 UNK         0.1079 
     72 H72       -80.7697   25.6400  -71.6972 H         1 UNK         0.0837 
     73 H73       -79.9265   26.1842  -73.1282 H         1 UNK         0.0837 
     74 H74       -78.2946   27.0088  -69.5199 H         1 UNK         0.0685 
     75 H75       -79.6226   27.4343  -70.5634 H         1 UNK         0.0685 
     76 H76       -79.3316   29.3154  -72.0480 H         1 UNK         0.1434 
     77 H77       -75.4236   30.9579  -72.6949 H         1 UNK         0.1329 
     78 H78       -75.8754   27.3391  -70.4455 H         1 UNK         0.1335 
     79 H79       -73.6925   28.2603  -70.7093 H         1 UNK         0.0680 
     80 H80       -73.5165   28.9238  -72.3179 H         1 UNK         0.0680 
     81 H81       -71.2592   29.4556  -70.9380 H         1 UNK         0.1032 
     82 H82       -71.0474   30.9337  -70.0427 H         1 UNK         0.1032 
     83 H83       -71.4094   32.2833  -72.1309 H         1 UNK         0.0461 
     84 H84       -69.4125   29.9416  -73.8537 H         1 UNK         0.3453 
     85 H85       -67.8985   30.5619  -73.2404 H         1 UNK         0.3453 
     86 H86       -72.1628   29.7638  -73.2599 H         1 UNK         0.2984 
     87 H87       -73.4091   30.5169  -75.7972 H         1 UNK         0.0554 
     88 H88       -71.8631   31.5122  -77.4376 H         1 UNK         0.0847 
     89 H89       -72.1574   29.8345  -77.8602 H         1 UNK         0.0847 
     90 H90       -70.6400   30.3001  -77.0920 H         1 UNK         0.0847 
     91 H91       -73.2470   28.3988  -75.3233 H         1 UNK         0.3141 
     92 H92       -70.6820   26.0599  -75.0019 H         1 UNK         0.0743 
     93 H93       -70.0831   27.1643  -72.7896 H         1 UNK         0.0784 
     94 H94       -71.7910   27.2031  -72.3744 H         1 UNK         0.0784 
     95 H95       -70.9615   25.6660  -72.5810 H         1 UNK         0.0784 
     96 H96       -73.4919   26.7205  -74.9476 H         1 UNK         0.3213 
     97 H97       -74.4469   23.2977  -75.1111 H         1 UNK         0.0855 
     98 H98       -75.2831   25.5520  -73.1856 H         1 UNK         0.0814 
     99 H99       -74.8425   23.9155  -72.7220 H         1 UNK         0.0814 
    100 H100      -76.3027   24.2017  -73.6479 H         1 UNK         0.0814 
    101 H101      -75.9402   25.6259  -75.6343 H         1 UNK         0.3105 
    102 H102      -74.5834   27.0019  -78.4022 H         1 UNK         0.0547 
    103 H103      -75.4064   25.0815  -79.7829 H         1 UNK         0.0837 
    104 H104      -76.8975   25.0367  -78.8528 H         1 UNK         0.0837 
    105 H105      -76.5215   26.4336  -79.8609 H         1 UNK         0.0837 
    106 H106      -77.2771   27.1556  -77.6141 H         1 UNK         0.3020 
    107 H107      -77.2824   28.3525  -74.5086 H         1 UNK         0.1245 
    108 H108      -77.1391   30.5239  -76.6633 H         1 UNK         0.0781 
    109 H109      -76.2851   30.5387  -75.1433 H         1 UNK         0.0781 
    110 H110      -78.8691   31.8582  -72.6203 H         1 UNK         0.0836 
    111 H111      -77.3113   32.2533  -73.2935 H         1 UNK         0.0836 
    112 H112      -79.1929   28.9168  -76.4693 H         1 UNK         0.3022 
    113 H113      -81.2004   27.0039  -75.4603 H         1 UNK         0.0747 
    114 H114      -82.1038   27.6586  -77.7367 H         1 UNK         0.0793 
    115 H115      -80.4513   27.8297  -78.3158 H         1 UNK         0.0793 
    116 H116      -81.0593   28.8688  -77.0292 H         1 UNK         0.0793 
    117 H117      -81.5694   24.9696  -76.1457 H         1 UNK         0.3047 
    118 H118      -81.7887   23.3676  -78.7557 H         1 UNK         0.0822 
    119 H119      -80.1998   21.3999  -78.6950 H         1 UNK         0.0807 
    120 H120      -78.9696   22.4485  -77.9875 H         1 UNK         0.0807 
    121 H121      -79.5741   22.7633  -79.6042 H         1 UNK         0.0807 
    122 H122      -80.7514   22.4417  -76.1247 H         1 UNK         0.2946 
    123 H123      -83.8654   22.7827  -74.5487 H         1 UNK         0.1144 
    124 H124      -84.0750   20.4760  -75.4963 H         1 UNK         0.0793 
    125 H125      -83.4755   20.4266  -73.8469 H         1 UNK         0.0793 
    126 H126      -82.3675   20.1799  -75.1968 H         1 UNK         0.0793 
    127 H127      -81.2196   21.8471  -73.7783 H         1 UNK         0.2896 
@<TRIPOS>BOND
     1    1    2 1    
     2    1   67 1    
     3    1   68 1    
     4    1   69 1    
     5    2    3 2    
     6    2    4 am   BACKBONE|DICT|INTERRES
     7    4    5 1    
     8    4   70 1    
     9    5    6 1    
    10    5   65 1    
    11    5   71 1    
    12    6    7 1    
    13    6   72 1    
    14    6   73 1    
    15    7    8 1    
    16    8    9 1    
    17    8   74 1    
    18    8   75 1    
    19    9   10 ar   
    20    9   14 ar   
    21   10   11 ar   
    22   10   76 1    
    23   11   12 ar   
    24   11   48 1    
    25   12   13 ar   
    26   12   77 1    
    27   13   14 ar   
    28   13   15 1    
    29   14   78 1    
    30   15   16 1    
    31   15   79 1    
    32   15   80 1    
    33   16   17 1    
    34   17   18 1    
    35   17   81 1    
    36   17   82 1    
    37   18   19 1    
    38   18   22 1    
    39   18   83 1    
    40   19   20 am   BACKBONE|DICT|INTERRES
    41   19   21 2    
    42   20   84 1    
    43   20   85 1    
    44   22   23 am   BACKBONE|DICT|INTERRES
    45   22   86 1    
    46   23   24 2    
    47   23   25 1    
    48   25   26 1    
    49   25   27 1    
    50   25   87 1    
    51   26   88 1    
    52   26   89 1    
    53   26   90 1    
    54   27   28 am   BACKBONE|DICT|INTERRES
    55   27   91 1    
    56   28   29 2    
    57   28   30 1    
    58   30   31 1    
    59   30   32 1    
    60   30   92 1    
    61   31   93 1    
    62   31   94 1    
    63   31   95 1    
    64   32   33 am   BACKBONE|DICT|INTERRES
    65   32   96 1    
    66   33   34 2    
    67   33   35 1    
    68   35   36 1    
    69   35   37 1    
    70   35   97 1    
    71   36   98 1    
    72   36   99 1    
    73   36  100 1    
    74   37   38 am   BACKBONE|DICT|INTERRES
    75   37  101 1    
    76   38   39 2    
    77   38   40 1    
    78   40   41 1    
    79   40   42 1    
    80   40  102 1    
    81   41  103 1    
    82   41  104 1    
    83   41  105 1    
    84   42   43 am   BACKBONE|DICT|INTERRES
    85   42  106 1    
    86   43   44 2    
    87   43   45 1    
    88   45   46 1    
    89   45   49 1    
    90   45  107 1    
    91   46   47 1    
    92   46  108 1    
    93   46  109 1    
    94   47   48 1    
    95   48  110 1    
    96   48  111 1    
    97   49   50 am   BACKBONE|DICT|INTERRES
    98   49  112 1    
    99   50   51 2    
   100   50   52 1    
   101   52   53 1    
   102   52   54 1    
   103   52  113 1    
   104   53  114 1    
   105   53  115 1    
   106   53  116 1    
   107   54   55 am   BACKBONE|DICT|INTERRES
   108   54  117 1    
   109   55   56 2    
   110   55   57 1    
   111   57   58 1    
   112   57   59 1    
   113   57  118 1    
   114   58  119 1    
   115   58  120 1    
   116   58  121 1    
   117   59   60 am   BACKBONE|DICT|INTERRES
   118   59  122 1    
   119   60   61 2    
   120   60   62 1    
   121   62   63 1    
   122   62   64 1    
   123   62  123 1    
   124   63  124 1    
   125   63  125 1    
   126   63  126 1    
   127   64   65 am   BACKBONE|DICT|INTERRES
   128   64  127 1    
   129   65   66 2    
@<TRIPOS>SUBSTRUCTURE
     1 UNK         1 GROUP             0       ****    0 ROOT    
