@<TRIPOS>MOLECULE
3R135
127   129    1
SMALL
USER_CHARGES


@<TRIPOS>ATOM
      1 CA        -76.3888   24.1455  -71.5700 C.3       0 UNK        -0.1998 
      2 C         -77.6543   24.1459  -70.7281 C.2       0 UNK         0.4909 
      3 O         -77.8176   23.2878  -69.8606 O.2       0 UNK        -0.5240 
      4 N         -78.5578   25.1012  -70.9853 N.am      1 UNK        -0.4739 
      5 CA        -79.8569   25.2213  -70.3067 C.3       1 UNK         0.0864 
      6 C6        -80.4341   26.6544  -70.4238 C.3       11 UNK        -0.0881 
      7 S7        -80.7290   27.2108  -72.1414 S.3       11 UNK        -0.2682 
      8 C8        -80.5912   29.0181  -71.9684 C.3       11 UNK         0.0289 
      9 C9        -79.4346   29.5681  -72.7886 C.ar      11 UNK        -0.0687 
     10 C10       -79.6822   30.2474  -73.9847 C.ar      11 UNK        -0.0823 
     11 C11       -78.6278   30.7768  -74.7346 C.ar      11 UNK        -0.0830 
     12 C12       -77.3130   30.6086  -74.2879 C.ar      11 UNK        -0.1021 
     13 C13       -77.0537   29.9294  -73.0925 C.ar      11 UNK        -0.0753 
     14 C14       -78.1180   29.4155  -72.3450 C.ar      11 UNK        -0.0933 
     15 C15       -75.6249   29.7396  -72.6110 C.3       11 UNK         0.0166 
     16 S16       -74.9787   31.2430  -71.8238 S.3       11 UNK        -0.2615 
     17 C17       -73.5024   30.5931  -70.9681 C.3       11 UNK        -0.0865 
     18 CA        -72.2244   30.6358  -71.8465 C.3       10 UNK         0.0862 
     19 C         -70.9394   30.4826  -70.9801 C.2       10 UNK         0.5551 
     20 N         -70.1196   29.4560  -71.1745 N.am      10 UNK        -0.7319 
     21 O         -70.6760   31.3205  -70.1211 O.2       10 UNK        -0.5018 
     22 N         -72.3018   29.6718  -72.9567 N.am      10 UNK        -0.4509 
     23 C         -71.7235   29.8261  -74.1509 C.2       10 UNK         0.4899 
     24 O         -71.1238   30.8476  -74.4875 O.2       10 UNK        -0.4839 
     25 CA        -71.8058   28.6579  -75.1531 C.3       9 UNK         0.0222 
     26 CB        -70.5030   27.8355  -75.1366 C.3       9 UNK        -0.1966 
     27 N         -72.9763   27.7721  -75.0526 N.am      9 UNK        -0.4218 
     28 C         -73.3363   26.9329  -74.0690 C.2       9 UNK         0.5020 
     29 O         -72.7984   26.8992  -72.9618 O.2       9 UNK        -0.5274 
     30 CA        -74.4864   25.9549  -74.3753 C.3       8 UNK         0.0270 
     31 CB        -75.8540   26.5979  -74.0970 C.3       8 UNK        -0.1976 
     32 N         -74.4644   25.4597  -75.7527 N.am      8 UNK        -0.4313 
     33 C         -73.5075   24.6866  -76.2864 C.2       8 UNK         0.5041 
     34 O         -72.5397   24.2545  -75.6593 O.2       8 UNK        -0.5577 
     35 CA        -73.6501   24.3483  -77.7778 C.3       7 UNK         0.0284 
     36 CB        -74.6058   23.1618  -77.9825 C.3       7 UNK        -0.1958 
     37 N         -74.1337   25.5020  -78.5374 N.am      7 UNK        -0.4454 
     38 C         -73.3461   26.4631  -79.0378 C.2       7 UNK         0.5089 
     39 O         -72.1165   26.4418  -78.9806 O.2       7 UNK        -0.5125 
     40 CA        -74.0438   27.6558  -79.7184 C.3       6 UNK         0.0408 
     41 CB        -74.1743   27.4075  -81.2294 C.3       6 UNK        -0.1791 
     42 N         -75.3656   27.9631  -79.1631 N.am      6 UNK        -0.4762 
     43 C         -75.5810   28.4409  -77.9286 C.2       6 UNK         0.5007 
     44 O         -74.6835   28.6739  -77.1202 O.2       6 UNK        -0.5032 
     45 CA        -77.0494   28.6569  -77.5107 C.3       5 UNK         0.0783 
     46 C46       -77.5148   30.0645  -77.9536 C.3       11 UNK        -0.0857 
     47 S47       -79.2164   30.4556  -77.4265 S.3       11 UNK        -0.2512 
     48 C48       -78.9255   31.5569  -76.0067 C.3       11 UNK         0.0225 
     49 N         -77.9625   27.5966  -77.9641 N.am      5 UNK        -0.4615 
     50 C         -77.8056   26.2822  -77.7609 C.2       4 UNK         0.5053 
     51 O         -76.7863   25.7774  -77.2861 O.2       4 UNK        -0.5105 
     52 CA        -78.9627   25.3768  -78.2152 C.3       4 UNK         0.0263 
     53 CB        -78.8432   25.0852  -79.7201 C.3       4 UNK        -0.1981 
     54 N         -78.9972   24.1037  -77.4879 N.am      4 UNK        -0.4224 
     55 C         -79.1984   23.9738  -76.1694 C.2       3 UNK         0.4895 
     56 O         -79.4262   24.9178  -75.4080 O.2       3 UNK        -0.5091 
     57 CA        -79.0944   22.5423  -75.6103 C.3       3 UNK         0.0250 
     58 CB        -77.6198   22.1225  -75.4796 C.3       3 UNK        -0.1996 
     59 N         -79.7291   22.4315  -74.2964 N.am      3 UNK        -0.4254 
     60 C         -81.0520   22.4544  -74.0749 C.2       2 UNK         0.5004 
     61 O         -81.9040   22.4240  -74.9636 O.2       2 UNK        -0.5226 
     62 CA        -81.4852   22.5714  -72.6095 C.3       2 UNK         0.0269 
     63 CB        -81.3860   21.2097  -71.8932 C.3       2 UNK        -0.1926 
     64 N         -80.6592   23.5837  -71.9520 N.am      2 UNK        -0.4687 
     65 C         -80.8747   24.1474  -70.7579 C.2       1 UNK         0.5165 
     66 O         -81.8196   23.8567  -70.0227 O.2       1 UNK        -0.5079 
     67 H67       -75.7950   23.2531  -71.3734 H         1 UNK         0.0900 
     68 H68       -75.7762   25.0162  -71.3383 H         1 UNK         0.0900 
     69 H69       -76.6328   24.1569  -72.6313 H         1 UNK         0.0900 
     70 H70       -78.3827   25.7848  -71.7090 H         1 UNK         0.2959 
     71 H71       -79.6859   25.0348  -69.2437 H         1 UNK         0.1079 
     72 H72       -81.3696   26.7371  -69.8669 H         1 UNK         0.0837 
     73 H73       -79.7428   27.3465  -69.9406 H         1 UNK         0.0837 
     74 H74       -80.4662   29.3040  -70.9233 H         1 UNK         0.0685 
     75 H75       -81.5327   29.4673  -72.2882 H         1 UNK         0.0685 
     76 H76       -80.6992   30.3734  -74.3309 H         1 UNK         0.1434 
     77 H77       -76.4905   31.0145  -74.8612 H         1 UNK         0.1329 
     78 H78       -77.9245   28.8926  -71.4184 H         1 UNK         0.1335 
     79 H79       -75.5713   28.9090  -71.9061 H         1 UNK         0.0680 
     80 H80       -74.9908   29.4768  -73.4576 H         1 UNK         0.0680 
     81 H81       -73.6899   29.5821  -70.6024 H         1 UNK         0.1032 
     82 H82       -73.3721   31.2084  -70.0754 H         1 UNK         0.1032 
     83 H83       -72.1624   31.6391  -72.2725 H         1 UNK         0.0461 
     84 H84       -69.2887   29.3722  -70.6102 H         1 UNK         0.3453 
     85 H85       -70.3311   28.7605  -71.8716 H         1 UNK         0.3453 
     86 H86       -72.6867   28.7558  -72.7443 H         1 UNK         0.2984 
     87 H87       -71.8867   29.1161  -76.1402 H         1 UNK         0.0554 
     88 H88       -70.5047   27.0794  -75.9222 H         1 UNK         0.0847 
     89 H89       -70.3544   27.3266  -74.1838 H         1 UNK         0.0847 
     90 H90       -69.6342   28.4737  -75.3034 H         1 UNK         0.0847 
     91 H91       -73.5813   27.8087  -75.8706 H         1 UNK         0.3141 
     92 H92       -74.3711   25.0920  -73.7166 H         1 UNK         0.0743 
     93 H93       -75.9931   27.5117  -74.6731 H         1 UNK         0.0784 
     94 H94       -76.6739   25.9242  -74.3488 H         1 UNK         0.0784 
     95 H95       -75.9576   26.8536  -73.0432 H         1 UNK         0.0784 
     96 H96       -75.2665   25.6967  -76.3354 H         1 UNK         0.3213 
     97 H97       -72.6656   24.0554  -78.1500 H         1 UNK         0.0855 
     98 H98       -75.6217   23.4025  -77.6707 H         1 UNK         0.0814 
     99 H99       -74.2822   22.2946  -77.4052 H         1 UNK         0.0814 
    100 H100      -74.6413   22.8598  -79.0292 H         1 UNK         0.0814 
    101 H101      -75.1373   25.6359  -78.5649 H         1 UNK         0.3105 
    102 H102      -73.4088   28.5323  -79.5726 H         1 UNK         0.0547 
    103 H103      -73.2003   27.2021  -81.6761 H         1 UNK         0.0837 
    104 H104      -74.8175   26.5535  -81.4456 H         1 UNK         0.0837 
    105 H105      -74.5853   28.2775  -81.7417 H         1 UNK         0.0837 
    106 H106      -76.1648   27.7886  -79.7557 H         1 UNK         0.3020 
    107 H107      -77.0702   28.6286  -76.4201 H         1 UNK         0.1245 
    108 H108      -77.4809   30.1507  -79.0415 H         1 UNK         0.0781 
    109 H109      -76.8364   30.8307  -77.5733 H         1 UNK         0.0781 
    110 H110      -79.8178   32.1659  -75.8534 H         1 UNK         0.0836 
    111 H111      -78.1227   32.2611  -76.2303 H         1 UNK         0.0836 
    112 H112      -78.8275   27.9229  -78.3709 H         1 UNK         0.3022 
    113 H113      -79.9041   25.8965  -78.0250 H         1 UNK         0.0747 
    114 H114      -79.6745   24.4747  -80.0736 H         1 UNK         0.0793 
    115 H115      -78.8531   26.0072  -80.3030 H         1 UNK         0.0793 
    116 H116      -77.9164   24.5603  -79.9569 H         1 UNK         0.0793 
    117 H117      -78.7847   23.2771  -78.0265 H         1 UNK         0.3047 
    118 H118      -79.6008   21.8593  -76.2960 H         1 UNK         0.0822 
    119 H119      -77.1436   22.0642  -76.4580 H         1 UNK         0.0807 
    120 H120      -77.5235   21.1381  -75.0212 H         1 UNK         0.0807 
    121 H121      -77.0469   22.8316  -74.8801 H         1 UNK         0.0807 
    122 H122      -79.1094   22.4237  -73.5010 H         1 UNK         0.2946 
    123 H123      -82.5241   22.9084  -72.5933 H         1 UNK         0.1144 
    124 H124      -81.9502   20.4456  -72.4297 H         1 UNK         0.0793 
    125 H125      -81.7935   21.2572  -70.8835 H         1 UNK         0.0793 
    126 H126      -80.3541   20.8646  -71.8201 H         1 UNK         0.0793 
    127 H127      -79.9096   23.9677  -72.5110 H         1 UNK         0.2896 
@<TRIPOS>BOND
     1    1    2 1    
     2    1   67 1    
     3    1   68 1    
     4    1   69 1    
     5    2    3 2    
     6    2    4 am   BACKBONE|DICT|INTERRES
     7    4    5 1    
     8    4   70 1    
     9    5    6 1    
    10    5   65 1    
    11    5   71 1    
    12    6    7 1    
    13    6   72 1    
    14    6   73 1    
    15    7    8 1    
    16    8    9 1    
    17    8   74 1    
    18    8   75 1    
    19    9   10 ar   
    20    9   14 ar   
    21   10   11 ar   
    22   10   76 1    
    23   11   12 ar   
    24   11   48 1    
    25   12   13 ar   
    26   12   77 1    
    27   13   14 ar   
    28   13   15 1    
    29   14   78 1    
    30   15   16 1    
    31   15   79 1    
    32   15   80 1    
    33   16   17 1    
    34   17   18 1    
    35   17   81 1    
    36   17   82 1    
    37   18   19 1    
    38   18   22 1    
    39   18   83 1    
    40   19   20 am   BACKBONE|DICT|INTERRES
    41   19   21 2    
    42   20   84 1    
    43   20   85 1    
    44   22   23 am   BACKBONE|DICT|INTERRES
    45   22   86 1    
    46   23   24 2    
    47   23   25 1    
    48   25   26 1    
    49   25   27 1    
    50   25   87 1    
    51   26   88 1    
    52   26   89 1    
    53   26   90 1    
    54   27   28 am   BACKBONE|DICT|INTERRES
    55   27   91 1    
    56   28   29 2    
    57   28   30 1    
    58   30   31 1    
    59   30   32 1    
    60   30   92 1    
    61   31   93 1    
    62   31   94 1    
    63   31   95 1    
    64   32   33 am   BACKBONE|DICT|INTERRES
    65   32   96 1    
    66   33   34 2    
    67   33   35 1    
    68   35   36 1    
    69   35   37 1    
    70   35   97 1    
    71   36   98 1    
    72   36   99 1    
    73   36  100 1    
    74   37   38 am   BACKBONE|DICT|INTERRES
    75   37  101 1    
    76   38   39 2    
    77   38   40 1    
    78   40   41 1    
    79   40   42 1    
    80   40  102 1    
    81   41  103 1    
    82   41  104 1    
    83   41  105 1    
    84   42   43 am   BACKBONE|DICT|INTERRES
    85   42  106 1    
    86   43   44 2    
    87   43   45 1    
    88   45   46 1    
    89   45   49 1    
    90   45  107 1    
    91   46   47 1    
    92   46  108 1    
    93   46  109 1    
    94   47   48 1    
    95   48  110 1    
    96   48  111 1    
    97   49   50 am   BACKBONE|DICT|INTERRES
    98   49  112 1    
    99   50   51 2    
   100   50   52 1    
   101   52   53 1    
   102   52   54 1    
   103   52  113 1    
   104   53  114 1    
   105   53  115 1    
   106   53  116 1    
   107   54   55 am   BACKBONE|DICT|INTERRES
   108   54  117 1    
   109   55   56 2    
   110   55   57 1    
   111   57   58 1    
   112   57   59 1    
   113   57  118 1    
   114   58  119 1    
   115   58  120 1    
   116   58  121 1    
   117   59   60 am   BACKBONE|DICT|INTERRES
   118   59  122 1    
   119   60   61 2    
   120   60   62 1    
   121   62   63 1    
   122   62   64 1    
   123   62  123 1    
   124   63  124 1    
   125   63  125 1    
   126   63  126 1    
   127   64   65 am   BACKBONE|DICT|INTERRES
   128   64  127 1    
   129   65   66 2    
@<TRIPOS>SUBSTRUCTURE
     1 UNK         1 GROUP             0       ****    0 ROOT    
