@<TRIPOS>MOLECULE
3R135
127   129    1
SMALL
USER_CHARGES


@<TRIPOS>ATOM
      1 CA        -76.4354   25.8403  -72.2193 C.3       0 UNK        -0.1998 
      2 C         -77.9513   25.7125  -72.2137 C.2       0 UNK         0.4909 
      3 O         -78.5562   25.5468  -73.2745 O.2       0 UNK        -0.5240 
      4 N         -78.5547   25.7812  -71.0172 N.am      1 UNK        -0.4739 
      5 CA        -80.0019   25.8542  -70.7500 C.3       1 UNK         0.0864 
      6 C6        -80.5956   27.2443  -71.1049 C.3       11 UNK        -0.0881 
      7 S7        -79.8878   28.5687  -70.0692 S.3       11 UNK        -0.2682 
      8 C8        -80.5935   30.0493  -70.8568 C.3       11 UNK         0.0289 
      9 C9        -79.7913   30.4656  -72.0796 C.ar      11 UNK        -0.0687 
     10 C10       -80.1786   30.0518  -73.3581 C.ar      11 UNK        -0.0823 
     11 C11       -79.4271   30.4207  -74.4771 C.ar      11 UNK        -0.0830 
     12 C12       -78.3086   31.2424  -74.3149 C.ar      11 UNK        -0.1021 
     13 C13       -77.8952   31.6385  -73.0411 C.ar      11 UNK        -0.0753 
     14 C14       -78.6468   31.2549  -71.9267 C.ar      11 UNK        -0.0933 
     15 C15       -76.6170   32.4491  -72.8713 C.3       11 UNK         0.0166 
     16 S16       -75.1607   31.5748  -73.5385 S.3       11 UNK        -0.2615 
     17 C17       -75.1476   30.0464  -72.5369 C.3       11 UNK        -0.0865 
     18 CA        -73.7194   29.6354  -72.0948 C.3       10 UNK         0.0862 
     19 C         -73.7667   28.4394  -71.0983 C.2       10 UNK         0.5551 
     20 N         -73.1552   27.2987  -71.3942 N.am      10 UNK        -0.7319 
     21 O         -74.3689   28.5521  -70.0339 O.2       10 UNK        -0.5018 
     22 N         -72.8326   29.4300  -73.2533 N.am      10 UNK        -0.4509 
     23 C         -71.4985   29.5063  -73.2266 C.2       10 UNK         0.4899 
     24 O         -70.8455   29.7706  -72.2158 O.2       10 UNK        -0.4839 
     25 CA        -70.7819   29.2009  -74.5551 C.3       9 UNK         0.0222 
     26 CB        -69.2864   29.5682  -74.5183 C.3       9 UNK        -0.1966 
     27 N         -70.9170   27.7866  -74.9119 N.am      9 UNK        -0.4218 
     28 C         -71.9979   27.2336  -75.4743 C.2       9 UNK         0.5020 
     29 O         -73.0224   27.8629  -75.7599 O.2       9 UNK        -0.5274 
     30 CA        -71.9476   25.7158  -75.6991 C.3       8 UNK         0.0270 
     31 CB        -72.7062   24.9884  -74.5757 C.3       8 UNK        -0.1976 
     32 N         -72.5590   25.3940  -76.9858 N.am      8 UNK        -0.4313 
     33 C         -71.9182   25.4254  -78.1618 C.2       8 UNK         0.5041 
     34 O         -70.6987   25.5579  -78.2770 O.2       8 UNK        -0.5577 
     35 CA        -72.7958   25.3630  -79.4229 C.3       7 UNK         0.0284 
     36 CB        -73.4508   23.9835  -79.6049 C.3       7 UNK        -0.1958 
     37 N         -73.8152   26.4124  -79.3660 N.am      7 UNK        -0.4454 
     38 C         -73.5649   27.7081  -79.6036 C.2       7 UNK         0.5089 
     39 O         -72.5226   28.1169  -80.1165 O.2       7 UNK        -0.5125 
     40 CA        -74.6126   28.7372  -79.1443 C.3       6 UNK         0.0408 
     41 CB        -75.6275   29.0672  -80.2569 C.3       6 UNK        -0.1791 
     42 N         -75.2475   28.3767  -77.8686 N.am      6 UNK        -0.4762 
     43 C         -76.1990   27.4633  -77.6325 C.2       6 UNK         0.5007 
     44 O         -76.7713   26.8217  -78.5164 O.2       6 UNK        -0.5032 
     45 CA        -76.5184   27.2046  -76.1443 C.3       5 UNK         0.0783 
     46 C46       -77.4557   28.2828  -75.5527 C.3       11 UNK        -0.0857 
     47 S47       -79.2083   28.1602  -76.0669 S.3       11 UNK        -0.2512 
     48 C48       -79.7779   29.8817  -75.8565 C.3       11 UNK         0.0225 
     49 N         -77.0143   25.8531  -75.8842 N.am      5 UNK        -0.4615 
     50 C         -76.3688   24.7157  -76.1695 C.2       4 UNK         0.5053 
     51 O         -75.2445   24.6840  -76.6686 O.2       4 UNK        -0.5105 
     52 CA        -77.0714   23.3917  -75.8342 C.3       4 UNK         0.0263 
     53 CB        -76.3387   22.6606  -74.6975 C.3       4 UNK        -0.1981 
     54 N         -78.4684   23.5919  -75.4441 N.am      4 UNK        -0.4224 
     55 C         -79.5272   23.3446  -76.2257 C.2       3 UNK         0.4895 
     56 O         -79.4413   22.9187  -77.3792 O.2       3 UNK        -0.5091 
     57 CA        -80.9155   23.6191  -75.6100 C.3       3 UNK         0.0250 
     58 CB        -82.0530   22.8743  -76.3408 C.3       3 UNK        -0.1996 
     59 N         -80.9765   23.3622  -74.1648 N.am      3 UNK        -0.4254 
     60 C         -80.7175   22.2173  -73.5140 C.2       2 UNK         0.5004 
     61 O         -80.4128   21.1652  -74.0785 O.2       2 UNK        -0.5226 
     62 CA        -80.7941   22.2619  -71.9702 C.3       2 UNK         0.0269 
     63 CB        -80.1178   21.0438  -71.3122 C.3       2 UNK        -0.1926 
     64 N         -80.2165   23.4845  -71.3960 N.am      2 UNK        -0.4687 
     65 C         -80.8082   24.6871  -71.3667 C.2       1 UNK         0.5165 
     66 O         -81.9327   24.8846  -71.8313 O.2       1 UNK        -0.5079 
     67 H67       -75.9673   24.8593  -72.1591 H         1 UNK         0.0900 
     68 H68       -76.0888   26.4342  -71.3742 H         1 UNK         0.0900 
     69 H69       -76.0945   26.3289  -73.1309 H         1 UNK         0.0900 
     70 H70       -77.9758   25.8912  -70.1961 H         1 UNK         0.2959 
     71 H71       -80.1153   25.7198  -69.6729 H         1 UNK         0.1079 
     72 H72       -80.4252   27.4680  -72.1589 H         1 UNK         0.0837 
     73 H73       -81.6764   27.2642  -70.9526 H         1 UNK         0.0837 
     74 H74       -80.5992   30.8635  -70.1306 H         1 UNK         0.0685 
     75 H75       -81.6373   29.8701  -71.1197 H         1 UNK         0.0685 
     76 H76       -81.0455   29.4173  -73.4816 H         1 UNK         0.1434 
     77 H77       -77.7206   31.5294  -75.1761 H         1 UNK         0.1329 
     78 H78       -78.3344   31.5551  -70.9357 H         1 UNK         0.1335 
     79 H79       -76.7275   33.4018  -73.3909 H         1 UNK         0.0680 
     80 H80       -76.4392   32.6873  -71.8214 H         1 UNK         0.0680 
     81 H81       -75.6167   29.2484  -73.1140 H         1 UNK         0.1032 
     82 H82       -75.7825   30.1967  -71.6613 H         1 UNK         0.1032 
     83 H83       -73.3113   30.4704  -71.5219 H         1 UNK         0.0461 
     84 H84       -72.6368   27.2104  -72.2514 H         1 UNK         0.3453 
     85 H85       -73.1824   26.5380  -70.7343 H         1 UNK         0.3453 
     86 H86       -73.2731   29.1562  -74.1239 H         1 UNK         0.2984 
     87 H87       -71.2519   29.8099  -75.3306 H         1 UNK         0.0554 
     88 H88       -68.8138   29.4044  -75.4869 H         1 UNK         0.0847 
     89 H89       -68.7411   28.9839  -73.7758 H         1 UNK         0.0847 
     90 H90       -69.1499   30.6212  -74.2679 H         1 UNK         0.0847 
     91 H91       -70.1365   27.1902  -74.6755 H         1 UNK         0.3141 
     92 H92       -70.9098   25.3757  -75.6961 H         1 UNK         0.0743 
     93 H93       -72.2132   25.1329  -73.6139 H         1 UNK         0.0784 
     94 H94       -72.7511   23.9145  -74.7583 H         1 UNK         0.0784 
     95 H95       -73.7299   25.3514  -74.4745 H         1 UNK         0.0784 
     96 H96       -73.5689   25.2539  -76.9733 H         1 UNK         0.3213 
     97 H97       -72.1536   25.5409  -80.2886 H         1 UNK         0.0855 
     98 H98       -72.6939   23.1994  -79.6512 H         1 UNK         0.0814 
     99 H99       -74.0202   23.9379  -80.5333 H         1 UNK         0.0814 
    100 H100      -74.1269   23.7325  -78.7886 H         1 UNK         0.0814 
    101 H101      -74.7109   26.1715  -78.9588 H         1 UNK         0.3105 
    102 H102      -74.0656   29.6571  -78.9316 H         1 UNK         0.0547 
    103 H103      -76.1535   28.1814  -80.6130 H         1 UNK         0.0837 
    104 H104      -75.1220   29.5037  -81.1191 H         1 UNK         0.0837 
    105 H105      -76.3709   29.7881  -79.9172 H         1 UNK         0.0837 
    106 H106      -74.7812   28.7719  -77.0605 H         1 UNK         0.3020 
    107 H107      -75.5691   27.2714  -75.6092 H         1 UNK         0.1245 
    108 H108      -77.0736   29.2756  -75.7940 H         1 UNK         0.0781 
    109 H109      -77.4377   28.2173  -74.4636 H         1 UNK         0.0781 
    110 H110      -80.8575   29.9233  -76.0073 H         1 UNK         0.0836 
    111 H111      -79.3354   30.5030  -76.6368 H         1 UNK         0.0836 
    112 H112      -77.9270   25.7998  -75.4523 H         1 UNK         0.3022 
    113 H113      -77.0123   22.7669  -76.7277 H         1 UNK         0.0747 
    114 H114      -76.7796   21.6808  -74.5128 H         1 UNK         0.0793 
    115 H115      -75.2878   22.5019  -74.9443 H         1 UNK         0.0793 
    116 H116      -76.3755   23.2224  -73.7656 H         1 UNK         0.0793 
    117 H117      -78.6286   24.0126  -74.5327 H         1 UNK         0.3047 
    118 H118      -81.0887   24.6894  -75.7337 H         1 UNK         0.0822 
    119 H119      -83.0237   23.1030  -75.9009 H         1 UNK         0.0807 
    120 H120      -81.9149   21.7931  -76.3062 H         1 UNK         0.0807 
    121 H121      -82.0999   23.1630  -77.3916 H         1 UNK         0.0807 
    122 H122      -81.2285   24.1583  -73.5882 H         1 UNK         0.2946 
    123 H123      -81.8559   22.2279  -71.7146 H         1 UNK         0.1144 
    124 H124      -80.5742   20.1113  -71.6475 H         1 UNK         0.0793 
    125 H125      -80.2142   21.0736  -70.2268 H         1 UNK         0.0793 
    126 H126      -79.0556   20.9937  -71.5550 H         1 UNK         0.0793 
    127 H127      -79.2746   23.4147  -71.0380 H         1 UNK         0.2896 
@<TRIPOS>BOND
     1    1    2 1    
     2    1   67 1    
     3    1   68 1    
     4    1   69 1    
     5    2    3 2    
     6    2    4 am   BACKBONE|DICT|INTERRES
     7    4    5 1    
     8    4   70 1    
     9    5    6 1    
    10    5   65 1    
    11    5   71 1    
    12    6    7 1    
    13    6   72 1    
    14    6   73 1    
    15    7    8 1    
    16    8    9 1    
    17    8   74 1    
    18    8   75 1    
    19    9   10 ar   
    20    9   14 ar   
    21   10   11 ar   
    22   10   76 1    
    23   11   12 ar   
    24   11   48 1    
    25   12   13 ar   
    26   12   77 1    
    27   13   14 ar   
    28   13   15 1    
    29   14   78 1    
    30   15   16 1    
    31   15   79 1    
    32   15   80 1    
    33   16   17 1    
    34   17   18 1    
    35   17   81 1    
    36   17   82 1    
    37   18   19 1    
    38   18   22 1    
    39   18   83 1    
    40   19   20 am   BACKBONE|DICT|INTERRES
    41   19   21 2    
    42   20   84 1    
    43   20   85 1    
    44   22   23 am   BACKBONE|DICT|INTERRES
    45   22   86 1    
    46   23   24 2    
    47   23   25 1    
    48   25   26 1    
    49   25   27 1    
    50   25   87 1    
    51   26   88 1    
    52   26   89 1    
    53   26   90 1    
    54   27   28 am   BACKBONE|DICT|INTERRES
    55   27   91 1    
    56   28   29 2    
    57   28   30 1    
    58   30   31 1    
    59   30   32 1    
    60   30   92 1    
    61   31   93 1    
    62   31   94 1    
    63   31   95 1    
    64   32   33 am   BACKBONE|DICT|INTERRES
    65   32   96 1    
    66   33   34 2    
    67   33   35 1    
    68   35   36 1    
    69   35   37 1    
    70   35   97 1    
    71   36   98 1    
    72   36   99 1    
    73   36  100 1    
    74   37   38 am   BACKBONE|DICT|INTERRES
    75   37  101 1    
    76   38   39 2    
    77   38   40 1    
    78   40   41 1    
    79   40   42 1    
    80   40  102 1    
    81   41  103 1    
    82   41  104 1    
    83   41  105 1    
    84   42   43 am   BACKBONE|DICT|INTERRES
    85   42  106 1    
    86   43   44 2    
    87   43   45 1    
    88   45   46 1    
    89   45   49 1    
    90   45  107 1    
    91   46   47 1    
    92   46  108 1    
    93   46  109 1    
    94   47   48 1    
    95   48  110 1    
    96   48  111 1    
    97   49   50 am   BACKBONE|DICT|INTERRES
    98   49  112 1    
    99   50   51 2    
   100   50   52 1    
   101   52   53 1    
   102   52   54 1    
   103   52  113 1    
   104   53  114 1    
   105   53  115 1    
   106   53  116 1    
   107   54   55 am   BACKBONE|DICT|INTERRES
   108   54  117 1    
   109   55   56 2    
   110   55   57 1    
   111   57   58 1    
   112   57   59 1    
   113   57  118 1    
   114   58  119 1    
   115   58  120 1    
   116   58  121 1    
   117   59   60 am   BACKBONE|DICT|INTERRES
   118   59  122 1    
   119   60   61 2    
   120   60   62 1    
   121   62   63 1    
   122   62   64 1    
   123   62  123 1    
   124   63  124 1    
   125   63  125 1    
   126   63  126 1    
   127   64   65 am   BACKBONE|DICT|INTERRES
   128   64  127 1    
   129   65   66 2    
@<TRIPOS>SUBSTRUCTURE
     1 UNK         1 GROUP             0       ****    0 ROOT    
