@<TRIPOS>MOLECULE
3R135
127   129    1
SMALL
USER_CHARGES


@<TRIPOS>ATOM
      1 CA        -80.1783   29.2305  -76.3216 C.3       0 UNK        -0.1998 
      2 C         -80.2400   28.2383  -75.1712 C.2       0 UNK         0.4909 
      3 O         -79.5225   27.2365  -75.1852 O.2       0 UNK        -0.5240 
      4 N         -81.0975   28.5047  -74.1772 N.am      1 UNK        -0.4739 
      5 CA        -81.2829   27.6786  -72.9803 C.3       1 UNK         0.0864 
      6 C6        -82.1717   28.3615  -71.9082 C.3       11 UNK        -0.0881 
      7 S7        -81.6666   30.0687  -71.5031 S.3       11 UNK        -0.2682 
      8 C8        -80.4686   29.8101  -70.1562 C.3       11 UNK         0.0289 
      9 C9        -79.1275   29.3121  -70.6766 C.ar      11 UNK        -0.0687 
     10 C10       -78.6733   28.0274  -70.3609 C.ar      11 UNK        -0.0823 
     11 C11       -77.4359   27.5706  -70.8285 C.ar      11 UNK        -0.0830 
     12 C12       -76.6491   28.4243  -71.6133 C.ar      11 UNK        -0.1021 
     13 C13       -77.0914   29.7105  -71.9336 C.ar      11 UNK        -0.0753 
     14 C14       -78.3301   30.1495  -71.4618 C.ar      11 UNK        -0.0933 
     15 C15       -76.2242   30.6263  -72.7810 C.3       11 UNK         0.0166 
     16 S16       -75.0220   31.5164  -71.7448 S.3       11 UNK        -0.2615 
     17 C17       -74.1671   32.5726  -72.9691 C.3       11 UNK        -0.0865 
     18 CA        -73.4621   31.7956  -74.1159 C.3       10 UNK         0.0862 
     19 C         -72.7110   32.7563  -75.0821 C.2       10 UNK         0.5551 
     20 N         -71.4380   32.5333  -75.3853 N.am      10 UNK        -0.7319 
     21 O         -73.2978   33.7169  -75.5744 O.2       10 UNK        -0.5018 
     22 N         -72.6317   30.6919  -73.6011 N.am      10 UNK        -0.4509 
     23 C         -72.5873   29.4676  -74.1357 C.2       10 UNK         0.4899 
     24 O         -73.1972   29.1447  -75.1554 O.2       10 UNK        -0.4839 
     25 CA        -71.7271   28.4350  -73.3938 C.3       9 UNK         0.0222 
     26 CB        -72.2446   28.1932  -71.9623 C.3       9 UNK        -0.1966 
     27 N         -71.7518   27.1670  -74.1178 N.am      9 UNK        -0.4218 
     28 C         -70.7198   26.3344  -74.2861 C.2       9 UNK         0.5020 
     29 O         -69.5833   26.5566  -73.8653 O.2       9 UNK        -0.5274 
     30 CA        -70.9951   25.0211  -75.0342 C.3       8 UNK         0.0270 
     31 CB        -71.5306   23.9596  -74.0578 C.3       8 UNK        -0.1976 
     32 N         -71.9587   25.1913  -76.1247 N.am      8 UNK        -0.4313 
     33 C         -71.6463   25.2181  -77.4281 C.2       8 UNK         0.5041 
     34 O         -70.4917   25.1530  -77.8532 O.2       8 UNK        -0.5577 
     35 CA        -72.8019   25.3027  -78.4439 C.3       7 UNK         0.0284 
     36 CB        -73.0409   23.9315  -79.0976 C.3       7 UNK        -0.1958 
     37 N         -74.0521   25.7673  -77.8403 N.am      7 UNK        -0.4454 
     38 C         -74.3873   27.0584  -77.7035 C.2       7 UNK         0.5089 
     39 O         -73.7317   27.9824  -78.1856 O.2       7 UNK        -0.5125 
     40 CA        -75.6649   27.3846  -76.9012 C.3       6 UNK         0.0408 
     41 CB        -76.7992   27.7959  -77.8519 C.3       6 UNK        -0.1791 
     42 N         -76.1357   26.2997  -76.0321 N.am      6 UNK        -0.4762 
     43 C         -75.4510   25.7799  -75.0013 C.2       6 UNK         0.5007 
     44 O         -74.3201   26.1465  -74.6859 O.2       6 UNK        -0.5032 
     45 CA        -76.0913   24.5926  -74.2532 C.3       5 UNK         0.0783 
     46 C46       -76.8936   25.0594  -73.0139 C.3       11 UNK        -0.0857 
     47 S47       -75.8054   25.3761  -71.5874 S.3       11 UNK        -0.2512 
     48 C48       -76.9632   26.1736  -70.4231 C.3       11 UNK         0.0225 
     49 N         -76.8946   23.7396  -75.1351 N.am      5 UNK        -0.4615 
     50 C         -76.4138   23.0405  -76.1749 C.2       4 UNK         0.5053 
     51 O         -75.2280   23.0377  -76.5038 O.2       4 UNK        -0.5105 
     52 CA        -77.4341   22.2415  -77.0059 C.3       4 UNK         0.0263 
     53 CB        -77.5606   20.8075  -76.4691 C.3       4 UNK        -0.1981 
     54 N         -78.7559   22.8730  -77.0215 N.am      4 UNK        -0.4224 
     55 C         -79.0334   24.0443  -77.6081 C.2       3 UNK         0.4895 
     56 O         -78.2328   24.6602  -78.3100 O.2       3 UNK        -0.5091 
     57 CA        -80.4018   24.6716  -77.3058 C.3       3 UNK         0.0250 
     58 CB        -81.5145   24.0799  -78.1930 C.3       3 UNK        -0.1996 
     59 N         -80.7447   24.6465  -75.8756 N.am      3 UNK        -0.4254 
     60 C         -81.1053   23.6078  -75.1045 C.2       2 UNK         0.5004 
     61 O         -81.1881   22.4534  -75.5252 O.2       2 UNK        -0.5226 
     62 CA        -81.3578   23.8729  -73.6043 C.3       2 UNK         0.0269 
     63 CB        -80.5610   22.8896  -72.7278 C.3       2 UNK        -0.1926 
     64 N         -81.0397   25.2442  -73.1887 N.am      2 UNK        -0.4687 
     65 C         -81.8493   26.2971  -73.3630 C.2       1 UNK         0.5165 
     66 O         -82.9815   26.2153  -73.8435 O.2       1 UNK        -0.5079 
     67 H67       -79.2216   29.7516  -76.3139 H         1 UNK         0.0900 
     68 H68       -80.2781   28.7091  -77.2732 H         1 UNK         0.0900 
     69 H69       -80.9716   29.9750  -76.2590 H         1 UNK         0.0900 
     70 H70       -81.6665   29.3382  -74.2164 H         1 UNK         0.2959 
     71 H71       -80.2921   27.5311  -72.5490 H         1 UNK         0.1079 
     72 H72       -82.1884   27.7675  -70.9924 H         1 UNK         0.0837 
     73 H73       -83.2077   28.4111  -72.2497 H         1 UNK         0.0837 
     74 H74       -80.3146   30.7586  -69.6398 H         1 UNK         0.0685 
     75 H75       -80.8872   29.1258  -69.4166 H         1 UNK         0.0685 
     76 H76       -79.2829   27.3834  -69.7414 H         1 UNK         0.1434 
     77 H77       -75.6820   28.1009  -71.9711 H         1 UNK         0.1329 
     78 H78       -78.6755   31.1457  -71.7026 H         1 UNK         0.1335 
     79 H79       -75.7007   30.0316  -73.5308 H         1 UNK         0.0680 
     80 H80       -76.8420   31.3432  -73.3242 H         1 UNK         0.0680 
     81 H81       -74.8960   33.2745  -73.3791 H         1 UNK         0.1032 
     82 H82       -73.4406   33.1808  -72.4271 H         1 UNK         0.1032 
     83 H83       -74.2557   31.3723  -74.7332 H         1 UNK         0.0461 
     84 H84       -70.9541   31.7398  -74.9970 H         1 UNK         0.3453 
     85 H85       -70.9615   33.1588  -76.0159 H         1 UNK         0.3453 
     86 H86       -72.0970   30.8908  -72.7683 H         1 UNK         0.2984 
     87 H87       -70.7081   28.8248  -73.3527 H         1 UNK         0.0554 
     88 H88       -71.6270   27.4639  -71.4378 H         1 UNK         0.0847 
     89 H89       -73.2686   27.8172  -71.9665 H         1 UNK         0.0847 
     90 H90       -72.2342   29.1072  -71.3678 H         1 UNK         0.0847 
     91 H91       -72.6636   26.9197  -74.5002 H         1 UNK         0.3141 
     92 H92       -70.0423   24.6603  -75.4277 H         1 UNK         0.0743 
     93 H93       -72.4788   24.2607  -73.6100 H         1 UNK         0.0784 
     94 H94       -71.6860   23.0038  -74.5587 H         1 UNK         0.0784 
     95 H95       -70.8256   23.7879  -73.2432 H         1 UNK         0.0784 
     96 H96       -72.9266   25.3216  -75.8518 H         1 UNK         0.3213 
     97 H97       -72.4980   25.9990  -79.2288 H         1 UNK         0.0855 
     98 H98       -73.3019   23.1710  -78.3610 H         1 UNK         0.0814 
     99 H99       -72.1450   23.5862  -79.6154 H         1 UNK         0.0814 
    100 H100      -73.8433   23.9758  -79.8342 H         1 UNK         0.0814 
    101 H101      -74.6526   25.0607  -77.4330 H         1 UNK         0.3105 
    102 H102      -75.4397   28.2369  -76.2581 H         1 UNK         0.0547 
    103 H103      -76.5245   28.6829  -78.4242 H         1 UNK         0.0837 
    104 H104      -77.0312   27.0074  -78.5681 H         1 UNK         0.0837 
    105 H105      -77.7108   28.0317  -77.3053 H         1 UNK         0.0837 
    106 H106      -77.0492   25.9222  -76.2428 H         1 UNK         0.3020 
    107 H107      -75.2656   23.9646  -73.9088 H         1 UNK         0.1245 
    108 H108      -77.5907   24.2828  -72.7000 H         1 UNK         0.0781 
    109 H109      -77.4984   25.9418  -73.2356 H         1 UNK         0.0781 
    110 H110      -76.4719   26.2503  -69.4524 H         1 UNK         0.0836 
    111 H111      -77.8191   25.5114  -70.2824 H         1 UNK         0.0836 
    112 H112      -77.8834   23.6928  -74.9461 H         1 UNK         0.3022 
    113 H113      -77.0640   22.1962  -78.0324 H         1 UNK         0.0747 
    114 H114      -78.2271   20.2095  -77.0908 H         1 UNK         0.0793 
    115 H115      -76.5910   20.3072  -76.4608 H         1 UNK         0.0793 
    116 H116      -77.9470   20.7890  -75.4491 H         1 UNK         0.0793 
    117 H117      -79.4972   22.4368  -76.4791 H         1 UNK         0.3047 
    118 H118      -80.3176   25.7298  -77.5598 H         1 UNK         0.0822 
    119 H119      -82.4740   24.5576  -77.9954 H         1 UNK         0.0807 
    120 H120      -81.6365   23.0069  -78.0438 H         1 UNK         0.0807 
    121 H121      -81.2875   24.2326  -79.2489 H         1 UNK         0.0807 
    122 H122      -80.6069   25.5381  -75.4098 H         1 UNK         0.2946 
    123 H123      -82.4211   23.6911  -73.4304 H         1 UNK         0.1144 
    124 H124      -80.7284   23.0754  -71.6667 H         1 UNK         0.0793 
    125 H125      -79.4900   22.9502  -72.9166 H         1 UNK         0.0793 
    126 H126      -80.8639   21.8597  -72.9222 H         1 UNK         0.0793 
    127 H127      -80.1154   25.3984  -72.8132 H         1 UNK         0.2896 
@<TRIPOS>BOND
     1    1    2 1    
     2    1   67 1    
     3    1   68 1    
     4    1   69 1    
     5    2    3 2    
     6    2    4 am   BACKBONE|DICT|INTERRES
     7    4    5 1    
     8    4   70 1    
     9    5    6 1    
    10    5   65 1    
    11    5   71 1    
    12    6    7 1    
    13    6   72 1    
    14    6   73 1    
    15    7    8 1    
    16    8    9 1    
    17    8   74 1    
    18    8   75 1    
    19    9   10 ar   
    20    9   14 ar   
    21   10   11 ar   
    22   10   76 1    
    23   11   12 ar   
    24   11   48 1    
    25   12   13 ar   
    26   12   77 1    
    27   13   14 ar   
    28   13   15 1    
    29   14   78 1    
    30   15   16 1    
    31   15   79 1    
    32   15   80 1    
    33   16   17 1    
    34   17   18 1    
    35   17   81 1    
    36   17   82 1    
    37   18   19 1    
    38   18   22 1    
    39   18   83 1    
    40   19   20 am   BACKBONE|DICT|INTERRES
    41   19   21 2    
    42   20   84 1    
    43   20   85 1    
    44   22   23 am   BACKBONE|DICT|INTERRES
    45   22   86 1    
    46   23   24 2    
    47   23   25 1    
    48   25   26 1    
    49   25   27 1    
    50   25   87 1    
    51   26   88 1    
    52   26   89 1    
    53   26   90 1    
    54   27   28 am   BACKBONE|DICT|INTERRES
    55   27   91 1    
    56   28   29 2    
    57   28   30 1    
    58   30   31 1    
    59   30   32 1    
    60   30   92 1    
    61   31   93 1    
    62   31   94 1    
    63   31   95 1    
    64   32   33 am   BACKBONE|DICT|INTERRES
    65   32   96 1    
    66   33   34 2    
    67   33   35 1    
    68   35   36 1    
    69   35   37 1    
    70   35   97 1    
    71   36   98 1    
    72   36   99 1    
    73   36  100 1    
    74   37   38 am   BACKBONE|DICT|INTERRES
    75   37  101 1    
    76   38   39 2    
    77   38   40 1    
    78   40   41 1    
    79   40   42 1    
    80   40  102 1    
    81   41  103 1    
    82   41  104 1    
    83   41  105 1    
    84   42   43 am   BACKBONE|DICT|INTERRES
    85   42  106 1    
    86   43   44 2    
    87   43   45 1    
    88   45   46 1    
    89   45   49 1    
    90   45  107 1    
    91   46   47 1    
    92   46  108 1    
    93   46  109 1    
    94   47   48 1    
    95   48  110 1    
    96   48  111 1    
    97   49   50 am   BACKBONE|DICT|INTERRES
    98   49  112 1    
    99   50   51 2    
   100   50   52 1    
   101   52   53 1    
   102   52   54 1    
   103   52  113 1    
   104   53  114 1    
   105   53  115 1    
   106   53  116 1    
   107   54   55 am   BACKBONE|DICT|INTERRES
   108   54  117 1    
   109   55   56 2    
   110   55   57 1    
   111   57   58 1    
   112   57   59 1    
   113   57  118 1    
   114   58  119 1    
   115   58  120 1    
   116   58  121 1    
   117   59   60 am   BACKBONE|DICT|INTERRES
   118   59  122 1    
   119   60   61 2    
   120   60   62 1    
   121   62   63 1    
   122   62   64 1    
   123   62  123 1    
   124   63  124 1    
   125   63  125 1    
   126   63  126 1    
   127   64   65 am   BACKBONE|DICT|INTERRES
   128   64  127 1    
   129   65   66 2    
@<TRIPOS>SUBSTRUCTURE
     1 UNK         1 GROUP             0       ****    0 ROOT    
