@<TRIPOS>MOLECULE
3R135
127   129    1
SMALL
USER_CHARGES


@<TRIPOS>ATOM
      1 CA        -81.3466   22.1368  -72.4412 C.3       0 UNK        -0.1998 
      2 C         -81.8106   23.4931  -72.9489 C.2       0 UNK         0.4909 
      3 O         -82.3824   23.5795  -74.0362 O.2       0 UNK        -0.5240 
      4 N         -81.5572   24.5526  -72.1712 N.am      1 UNK        -0.4739 
      5 CA        -81.8625   25.9567  -72.4705 C.3       1 UNK         0.0864 
      6 C6        -81.5425   26.9009  -71.2753 C.3       11 UNK        -0.0881 
      7 S7        -80.0687   26.4403  -70.2895 S.3       11 UNK        -0.2682 
      8 C8        -79.3247   28.0555  -69.9111 C.3       11 UNK         0.0289 
      9 C9        -78.3025   28.4720  -70.9572 C.ar      11 UNK        -0.0687 
     10 C10       -78.6186   29.4345  -71.9210 C.ar      11 UNK        -0.0823 
     11 C11       -77.6580   29.8583  -72.8463 C.ar      11 UNK        -0.0830 
     12 C12       -76.3705   29.3135  -72.7895 C.ar      11 UNK        -0.1021 
     13 C13       -76.0550   28.3210  -71.8579 C.ar      11 UNK        -0.0753 
     14 C14       -77.0228   27.9097  -70.9392 C.ar      11 UNK        -0.0933 
     15 C15       -74.6823   27.6658  -71.8720 C.3       11 UNK         0.0166 
     16 S16       -73.5953   28.2466  -70.5351 S.3       11 UNK        -0.2615 
     17 C17       -73.3956   30.0305  -70.8952 C.3       11 UNK        -0.0865 
     18 CA        -72.1344   30.4384  -71.7083 C.3       10 UNK         0.0862 
     19 C         -70.8013   29.8876  -71.1210 C.2       10 UNK         0.5551 
     20 N         -70.3813   30.3917  -69.9682 N.am      10 UNK        -0.7319 
     21 O         -70.1570   29.0033  -71.6835 O.2       10 UNK        -0.5018 
     22 N         -72.2937   30.1811  -73.1490 N.am      10 UNK        -0.4509 
     23 C         -71.5729   30.7892  -74.1013 C.2       10 UNK         0.4899 
     24 O         -70.7447   31.6723  -73.8691 O.2       10 UNK        -0.4839 
     25 CA        -71.8096   30.3272  -75.5512 C.3       9 UNK         0.0222 
     26 CB        -71.0007   31.1449  -76.5767 C.3       9 UNK        -0.1966 
     27 N         -71.4723   28.9111  -75.7024 N.am      9 UNK        -0.4218 
     28 C         -72.3286   27.9046  -75.5012 C.2       9 UNK         0.5020 
     29 O         -73.5014   28.0695  -75.1703 O.2       9 UNK        -0.5274 
     30 CA        -71.7633   26.4879  -75.6253 C.3       8 UNK         0.0270 
     31 CB        -71.3105   25.9694  -74.2486 C.3       8 UNK        -0.1976 
     32 N         -72.7789   25.5902  -76.1739 N.am      8 UNK        -0.4313 
     33 C         -72.5209   24.5610  -76.9906 C.2       8 UNK         0.5041 
     34 O         -71.3894   24.2662  -77.3804 O.2       8 UNK        -0.5577 
     35 CA        -73.7086   23.6999  -77.4526 C.3       7 UNK         0.0284 
     36 CB        -74.0831   22.6663  -76.3778 C.3       7 UNK        -0.1958 
     37 N         -74.8876   24.4864  -77.8180 N.am      7 UNK        -0.4454 
     38 C         -74.9997   25.2103  -78.9410 C.2       7 UNK         0.5089 
     39 O         -74.1177   25.2896  -79.7967 O.2       7 UNK        -0.5125 
     40 CA        -76.3225   25.9687  -79.1551 C.3       6 UNK         0.0408 
     41 CB        -77.3615   25.0658  -79.8380 C.3       6 UNK        -0.1791 
     42 N         -76.8742   26.4934  -77.9056 N.am      6 UNK        -0.4762 
     43 C         -76.3450   27.5155  -77.2188 C.2       6 UNK         0.5007 
     44 O         -75.4150   28.2012  -77.6442 O.2       6 UNK        -0.5032 
     45 CA        -76.9361   27.8040  -75.8218 C.3       5 UNK         0.0783 
     46 C46       -78.0612   28.8731  -75.8706 C.3       11 UNK        -0.0857 
     47 S47       -77.4078   30.5499  -75.5742 S.3       11 UNK        -0.2512 
     48 C48       -78.0241   30.9125  -73.8904 C.3       11 UNK         0.0225 
     49 N         -77.3715   26.5926  -75.1199 N.am      5 UNK        -0.4615 
     50 C         -76.5673   25.5947  -74.7291 C.2       4 UNK         0.5053 
     51 O         -75.3490   25.5878  -74.8880 O.2       4 UNK        -0.5105 
     52 CA        -77.2483   24.3586  -74.1225 C.3       4 UNK         0.0263 
     53 CB        -77.5345   24.5582  -72.6258 C.3       4 UNK        -0.1981 
     54 N         -78.4826   24.0322  -74.8403 N.am      4 UNK        -0.4224 
     55 C         -78.5083   23.5250  -76.0827 C.2       3 UNK         0.4895 
     56 O         -77.4988   23.1904  -76.7018 O.2       3 UNK        -0.5091 
     57 CA        -79.8784   23.4190  -76.7734 C.3       3 UNK         0.0250 
     58 CB        -80.5348   22.0601  -76.4865 C.3       3 UNK        -0.1996 
     59 N         -80.7823   24.5085  -76.3921 N.am      3 UNK        -0.4254 
     60 C         -80.6203   25.7786  -76.7961 C.2       2 UNK         0.5004 
     61 O         -79.7353   26.1342  -77.5722 O.2       2 UNK        -0.5226 
     62 CA        -81.5633   26.8445  -76.2094 C.3       2 UNK         0.0269 
     63 CB        -82.7852   27.0405  -77.1202 C.3       2 UNK        -0.1926 
     64 N         -82.0130   26.5472  -74.8466 N.am      2 UNK        -0.4687 
     65 C         -81.2020   26.4105  -73.7882 C.2       1 UNK         0.5165 
     66 O         -79.9824   26.5652  -73.8485 O.2       1 UNK        -0.5079 
     67 H67       -82.1274   21.3915  -72.5905 H         1 UNK         0.0900 
     68 H68       -80.4576   21.8150  -72.9824 H         1 UNK         0.0900 
     69 H69       -81.1064   22.1641  -71.3784 H         1 UNK         0.0900 
     70 H70       -81.0526   24.4213  -71.3050 H         1 UNK         0.2959 
     71 H71       -82.9427   26.0065  -72.6248 H         1 UNK         0.1079 
     72 H72       -82.3880   26.8922  -70.5857 H         1 UNK         0.0837 
     73 H73       -81.4590   27.9373  -71.6085 H         1 UNK         0.0837 
     74 H74       -80.1033   28.8114  -69.7982 H         1 UNK         0.0685 
     75 H75       -78.8308   27.9884  -68.9406 H         1 UNK         0.0685 
     76 H76       -79.6122   29.8604  -71.9428 H         1 UNK         0.1434 
     77 H77       -75.6177   29.6416  -73.4929 H         1 UNK         0.1329 
     78 H78       -76.7797   27.1503  -70.2087 H         1 UNK         0.1335 
     79 H79       -74.8002   26.5848  -71.7842 H         1 UNK         0.0680 
     80 H80       -74.1876   27.8313  -72.8245 H         1 UNK         0.0680 
     81 H81       -74.2915   30.4207  -71.3766 H         1 UNK         0.1032 
     82 H82       -73.3670   30.5360  -69.9286 H         1 UNK         0.1032 
     83 H83       -72.0651   31.5245  -71.6146 H         1 UNK         0.0461 
     84 H84       -70.8994   31.1138  -69.4927 H         1 UNK         0.3453 
     85 H85       -69.5254   30.0432  -69.5656 H         1 UNK         0.3453 
     86 H86       -72.9086   29.4247  -73.4181 H         1 UNK         0.2984 
     87 H87       -72.8681   30.4814  -75.7734 H         1 UNK         0.0554 
     88 H88       -71.2455   32.2059  -76.5103 H         1 UNK         0.0847 
     89 H89       -71.2195   30.8282  -77.5966 H         1 UNK         0.0847 
     90 H90       -69.9258   31.0476  -76.4185 H         1 UNK         0.0847 
     91 H91       -70.5073   28.6978  -75.9124 H         1 UNK         0.3141 
     92 H92       -70.9024   26.5241  -76.2964 H         1 UNK         0.0743 
     93 H93       -72.1480   25.9022  -73.5524 H         1 UNK         0.0784 
     94 H94       -70.8589   24.9803  -74.3261 H         1 UNK         0.0784 
     95 H95       -70.5681   26.6326  -73.8021 H         1 UNK         0.0784 
     96 H96       -73.7355   25.7742  -75.8693 H         1 UNK         0.3213 
     97 H97       -73.3882   23.1502  -78.3405 H         1 UNK         0.0855 
     98 H98       -74.4047   23.1414  -75.4513 H         1 UNK         0.0814 
     99 H99       -73.2303   22.0304  -76.1369 H         1 UNK         0.0814 
    100 H100      -74.8885   22.0144  -76.7169 H         1 UNK         0.0814 
    101 H101      -75.6752   24.4530  -77.1825 H         1 UNK         0.3105 
    102 H102      -76.1218   26.8118  -79.8196 H         1 UNK         0.0547 
    103 H103      -76.9896   24.7003  -80.7960 H         1 UNK         0.0837 
    104 H104      -77.6040   24.1944  -79.2296 H         1 UNK         0.0837 
    105 H105      -78.2885   25.6051  -80.0339 H         1 UNK         0.0837 
    106 H106      -77.7197   26.0568  -77.5518 H         1 UNK         0.3020 
    107 H107      -76.1020   28.1887  -75.2351 H         1 UNK         0.1245 
    108 H108      -78.8215   28.6703  -75.1152 H         1 UNK         0.0781 
    109 H109      -78.5962   28.8591  -76.8224 H         1 UNK         0.0781 
    110 H110      -79.1070   31.0348  -73.9448 H         1 UNK         0.0836 
    111 H111      -77.6223   31.8745  -73.5703 H         1 UNK         0.0836 
    112 H112      -78.3535   26.5432  -74.8640 H         1 UNK         0.3022 
    113 H113      -76.5639   23.5134  -74.2220 H         1 UNK         0.0747 
    114 H114      -78.0362   23.6920  -72.1948 H         1 UNK         0.0793 
    115 H115      -76.6062   24.7053  -72.0727 H         1 UNK         0.0793 
    116 H116      -78.1565   25.4335  -72.4409 H         1 UNK         0.0793 
    117 H117      -79.3459   24.3554  -74.4273 H         1 UNK         0.3047 
    118 H118      -79.7077   23.4844  -77.8503 H         1 UNK         0.0822 
    119 H119      -81.4888   21.9631  -77.0049 H         1 UNK         0.0807 
    120 H120      -80.7153   21.9101  -75.4230 H         1 UNK         0.0807 
    121 H121      -79.8972   21.2424  -76.8255 H         1 UNK         0.0807 
    122 H122      -81.5164   24.2893  -75.7245 H         1 UNK         0.2946 
    123 H123      -81.0066   27.7834  -76.1766 H         1 UNK         0.1144 
    124 H124      -83.4153   27.8581  -76.7694 H         1 UNK         0.0793 
    125 H125      -83.3988   26.1402  -77.1727 H         1 UNK         0.0793 
    126 H126      -82.4773   27.2851  -78.1379 H         1 UNK         0.0793 
    127 H127      -82.9983   26.3560  -74.7310 H         1 UNK         0.2896 
@<TRIPOS>BOND
     1    1    2 1    
     2    1   67 1    
     3    1   68 1    
     4    1   69 1    
     5    2    3 2    
     6    2    4 am   BACKBONE|DICT|INTERRES
     7    4    5 1    
     8    4   70 1    
     9    5    6 1    
    10    5   65 1    
    11    5   71 1    
    12    6    7 1    
    13    6   72 1    
    14    6   73 1    
    15    7    8 1    
    16    8    9 1    
    17    8   74 1    
    18    8   75 1    
    19    9   10 ar   
    20    9   14 ar   
    21   10   11 ar   
    22   10   76 1    
    23   11   12 ar   
    24   11   48 1    
    25   12   13 ar   
    26   12   77 1    
    27   13   14 ar   
    28   13   15 1    
    29   14   78 1    
    30   15   16 1    
    31   15   79 1    
    32   15   80 1    
    33   16   17 1    
    34   17   18 1    
    35   17   81 1    
    36   17   82 1    
    37   18   19 1    
    38   18   22 1    
    39   18   83 1    
    40   19   20 am   BACKBONE|DICT|INTERRES
    41   19   21 2    
    42   20   84 1    
    43   20   85 1    
    44   22   23 am   BACKBONE|DICT|INTERRES
    45   22   86 1    
    46   23   24 2    
    47   23   25 1    
    48   25   26 1    
    49   25   27 1    
    50   25   87 1    
    51   26   88 1    
    52   26   89 1    
    53   26   90 1    
    54   27   28 am   BACKBONE|DICT|INTERRES
    55   27   91 1    
    56   28   29 2    
    57   28   30 1    
    58   30   31 1    
    59   30   32 1    
    60   30   92 1    
    61   31   93 1    
    62   31   94 1    
    63   31   95 1    
    64   32   33 am   BACKBONE|DICT|INTERRES
    65   32   96 1    
    66   33   34 2    
    67   33   35 1    
    68   35   36 1    
    69   35   37 1    
    70   35   97 1    
    71   36   98 1    
    72   36   99 1    
    73   36  100 1    
    74   37   38 am   BACKBONE|DICT|INTERRES
    75   37  101 1    
    76   38   39 2    
    77   38   40 1    
    78   40   41 1    
    79   40   42 1    
    80   40  102 1    
    81   41  103 1    
    82   41  104 1    
    83   41  105 1    
    84   42   43 am   BACKBONE|DICT|INTERRES
    85   42  106 1    
    86   43   44 2    
    87   43   45 1    
    88   45   46 1    
    89   45   49 1    
    90   45  107 1    
    91   46   47 1    
    92   46  108 1    
    93   46  109 1    
    94   47   48 1    
    95   48  110 1    
    96   48  111 1    
    97   49   50 am   BACKBONE|DICT|INTERRES
    98   49  112 1    
    99   50   51 2    
   100   50   52 1    
   101   52   53 1    
   102   52   54 1    
   103   52  113 1    
   104   53  114 1    
   105   53  115 1    
   106   53  116 1    
   107   54   55 am   BACKBONE|DICT|INTERRES
   108   54  117 1    
   109   55   56 2    
   110   55   57 1    
   111   57   58 1    
   112   57   59 1    
   113   57  118 1    
   114   58  119 1    
   115   58  120 1    
   116   58  121 1    
   117   59   60 am   BACKBONE|DICT|INTERRES
   118   59  122 1    
   119   60   61 2    
   120   60   62 1    
   121   62   63 1    
   122   62   64 1    
   123   62  123 1    
   124   63  124 1    
   125   63  125 1    
   126   63  126 1    
   127   64   65 am   BACKBONE|DICT|INTERRES
   128   64  127 1    
   129   65   66 2    
@<TRIPOS>SUBSTRUCTURE
     1 UNK         1 GROUP             0       ****    0 ROOT    
