@<TRIPOS>MOLECULE
3R135
127   129    1
SMALL
USER_CHARGES


@<TRIPOS>ATOM
      1 CA        -83.3173   27.7541  -75.8664 C.3       0 UNK        -0.1998 
      2 C         -82.1261   27.3038  -75.0354 C.2       0 UNK         0.4909 
      3 O         -81.7395   26.1377  -75.1117 O.2       0 UNK        -0.5240 
      4 N         -81.5351   28.2237  -74.2584 N.am      1 UNK        -0.4739 
      5 CA        -80.3903   28.0069  -73.3603 C.3       1 UNK         0.0864 
      6 C6        -80.7798   27.2318  -72.0676 C.3       11 UNK        -0.0881 
      7 S7        -81.4501   28.3893  -70.8199 S.3       11 UNK        -0.2682 
      8 C8        -80.0521   28.6257  -69.6602 C.3       11 UNK         0.0289 
      9 C9        -78.7045   28.7410  -70.3637 C.ar      11 UNK        -0.0687 
     10 C10       -77.7834   27.6935  -70.2756 C.ar      11 UNK        -0.0823 
     11 C11       -76.5896   27.7302  -71.0003 C.ar      11 UNK        -0.0830 
     12 C12       -76.3192   28.8283  -71.8196 C.ar      11 UNK        -0.1021 
     13 C13       -77.2048   29.9119  -71.8704 C.ar      11 UNK        -0.0753 
     14 C14       -78.3917   29.8667  -71.1316 C.ar      11 UNK        -0.0933 
     15 C15       -76.9014   31.1142  -72.7531 C.3       11 UNK         0.0166 
     16 S16       -76.0064   32.4516  -71.8824 S.3       11 UNK        -0.2615 
     17 C17       -74.5022   31.6484  -71.2113 C.3       11 UNK        -0.0865 
     18 CA        -73.3160   31.5391  -72.2091 C.3       10 UNK         0.0862 
     19 C         -72.1025   30.8421  -71.5256 C.2       10 UNK         0.5551 
     20 N         -71.7590   29.6075  -71.8777 N.am      10 UNK        -0.7319 
     21 O         -71.4659   31.4358  -70.6589 O.2       10 UNK        -0.5018 
     22 N         -73.7306   30.9159  -73.4708 N.am      10 UNK        -0.4509 
     23 C         -73.0419   30.9158  -74.6142 C.2       10 UNK         0.4899 
     24 O         -71.9666   31.4918  -74.7870 O.2       10 UNK        -0.4839 
     25 CA        -73.6755   30.1044  -75.7546 C.3       9 UNK         0.0222 
     26 CB        -73.7562   30.9237  -77.0532 C.3       9 UNK        -0.1966 
     27 N         -72.9534   28.8592  -76.0092 N.am      9 UNK        -0.4218 
     28 C         -72.7329   27.8686  -75.1345 C.2       9 UNK         0.5020 
     29 O         -73.1166   27.8860  -73.9618 O.2       9 UNK        -0.5274 
     30 CA        -71.9955   26.6375  -75.6978 C.3       8 UNK         0.0270 
     31 CB        -71.5902   25.6335  -74.6043 C.3       8 UNK        -0.1976 
     32 N         -72.8143   25.9663  -76.7156 N.am      8 UNK        -0.4313 
     33 C         -72.9564   26.4064  -77.9759 C.2       8 UNK         0.5041 
     34 O         -72.3239   27.3688  -78.4173 O.2       8 UNK        -0.5577 
     35 CA        -74.0139   25.7492  -78.8801 C.3       7 UNK         0.0284 
     36 CB        -73.4747   25.4394  -80.2932 C.3       7 UNK        -0.1958 
     37 N         -74.7054   24.6032  -78.2817 N.am      7 UNK        -0.4454 
     38 C         -74.2629   23.3507  -78.1198 C.2       7 UNK         0.5089 
     39 O         -73.1410   22.9642  -78.4512 O.2       7 UNK        -0.5125 
     40 CA        -75.2594   22.3761  -77.4596 C.3       6 UNK         0.0408 
     41 CB        -74.6426   20.9891  -77.1824 C.3       6 UNK        -0.1791 
     42 N         -75.8858   22.9042  -76.2395 N.am      6 UNK        -0.4762 
     43 C         -75.2595   23.3416  -75.1345 C.2       6 UNK         0.5007 
     44 O         -74.0362   23.4583  -75.0667 O.2       6 UNK        -0.5032 
     45 CA        -76.1103   23.6756  -73.8858 C.3       5 UNK         0.0783 
     46 C46       -75.6379   24.9657  -73.1682 C.3       11 UNK        -0.0857 
     47 S47       -76.2625   25.0119  -71.4583 S.3       11 UNK        -0.2512 
     48 C48       -75.5859   26.5939  -70.8672 C.3       11 UNK         0.0225 
     49 N         -77.5505   23.7131  -74.1597 N.am      5 UNK        -0.4615 
     50 C         -78.3639   22.6513  -74.1987 C.2       4 UNK         0.5053 
     51 O         -77.9981   21.4977  -73.9736 O.2       4 UNK        -0.5105 
     52 CA        -79.8229   22.9184  -74.6091 C.3       4 UNK         0.0263 
     53 CB        -80.6586   23.3508  -73.3939 C.3       4 UNK        -0.1981 
     54 N         -79.9379   23.9249  -75.6700 N.am      4 UNK        -0.4224 
     55 C         -79.4368   23.7879  -76.9076 C.2       3 UNK         0.4895 
     56 O         -78.8681   22.7721  -77.3089 O.2       3 UNK        -0.5091 
     57 CA        -79.5334   25.0082  -77.8366 C.3       3 UNK         0.0250 
     58 CB        -80.9519   25.1689  -78.4072 C.3       3 UNK        -0.1996 
     59 N         -79.1164   26.2367  -77.1575 N.am      3 UNK        -0.4254 
     60 C         -77.8485   26.5073  -76.8139 C.2       2 UNK         0.5004 
     61 O         -76.8965   25.7877  -77.1062 O.2       2 UNK        -0.5226 
     62 CA        -77.5895   27.7775  -75.9869 C.3       2 UNK         0.0269 
     63 CB        -77.2183   28.9519  -76.9055 C.3       2 UNK        -0.1926 
     64 N         -78.7177   28.1596  -75.1337 N.am      2 UNK        -0.4687 
     65 C         -79.1743   27.4229  -74.1097 C.2       1 UNK         0.5165 
     66 O         -78.7060   26.3262  -73.8043 O.2       1 UNK        -0.5079 
     67 H67       -83.1096   27.6131  -76.9267 H         1 UNK         0.0900 
     68 H68       -84.1956   27.1625  -75.6099 H         1 UNK         0.0900 
     69 H69       -83.5562   28.8047  -75.7030 H         1 UNK         0.0900 
     70 H70       -81.9077   29.1633  -74.2523 H         1 UNK         0.2959 
     71 H71       -80.0599   29.0035  -73.0690 H         1 UNK         0.1079 
     72 H72       -81.5265   26.4659  -72.2817 H         1 UNK         0.0837 
     73 H73       -79.9392   26.6919  -71.6315 H         1 UNK         0.0837 
     74 H74       -80.0439   27.7937  -68.9544 H         1 UNK         0.0685 
     75 H75       -80.2303   29.5244  -69.0682 H         1 UNK         0.0685 
     76 H76       -78.0065   26.8288  -69.6654 H         1 UNK         0.1434 
     77 H77       -75.4042   28.8447  -72.3945 H         1 UNK         0.1329 
     78 H78       -79.0938   30.6875  -71.1877 H         1 UNK         0.1335 
     79 H79       -77.8381   31.5286  -73.1293 H         1 UNK         0.0680 
     80 H80       -76.3551   30.8032  -73.6423 H         1 UNK         0.0680 
     81 H81       -74.7552   30.6759  -70.7912 H         1 UNK         0.1032 
     82 H82       -74.1902   32.2458  -70.3525 H         1 UNK         0.1032 
     83 H83       -72.9938   32.5540  -72.4501 H         1 UNK         0.0461 
     84 H84       -72.2818   29.1042  -72.5866 H         1 UNK         0.3453 
     85 H85       -70.9721   29.1684  -71.4278 H         1 UNK         0.3453 
     86 H86       -74.5840   30.3842  -73.4282 H         1 UNK         0.2984 
     87 H87       -74.6930   29.8327  -75.4687 H         1 UNK         0.0554 
     88 H88       -74.3036   31.8537  -76.8939 H         1 UNK         0.0847 
     89 H89       -74.2742   30.3743  -77.8395 H         1 UNK         0.0847 
     90 H90       -72.7660   31.1883  -77.4267 H         1 UNK         0.0847 
     91 H91       -72.6154   28.7103  -76.9557 H         1 UNK         0.3141 
     92 H92       -71.0740   26.9934  -76.1638 H         1 UNK         0.0743 
     93 H93       -70.9097   26.0955  -73.8881 H         1 UNK         0.0784 
     94 H94       -71.0801   24.7680  -75.0274 H         1 UNK         0.0784 
     95 H95       -72.4502   25.2729  -74.0426 H         1 UNK         0.0784 
     96 H96       -73.3655   25.1742  -76.4065 H         1 UNK         0.3213 
     97 H97       -74.7906   26.5064  -78.9991 H         1 UNK         0.0855 
     98 H98       -72.6200   24.7634  -80.2655 H         1 UNK         0.0814 
     99 H99       -73.1433   26.3516  -80.7909 H         1 UNK         0.0814 
    100 H100      -74.2421   24.9896  -80.9229 H         1 UNK         0.0814 
    101 H101      -75.6188   24.8351  -77.8862 H         1 UNK         0.3105 
    102 H102      -76.0684   22.2372  -78.1783 H         1 UNK         0.0547 
    103 H103      -75.3786   20.3050  -76.7600 H         1 UNK         0.0837 
    104 H104      -73.8041   21.0509  -76.4879 H         1 UNK         0.0837 
    105 H105      -74.2705   20.5353  -78.1017 H         1 UNK         0.0837 
    106 H106      -76.8988   22.8870  -76.2344 H         1 UNK         0.3020 
    107 H107      -75.9205   22.8415  -73.2061 H         1 UNK         0.1245 
    108 H108      -75.9609   25.8590  -73.7049 H         1 UNK         0.0781 
    109 H109      -74.5505   25.0165  -73.1076 H         1 UNK         0.0781 
    110 H110      -74.6564   26.8229  -71.3921 H         1 UNK         0.0836 
    111 H111      -75.3200   26.4865  -69.8148 H         1 UNK         0.0836 
    112 H112      -77.9596   24.6387  -74.2656 H         1 UNK         0.3022 
    113 H113      -80.2365   21.9839  -74.9936 H         1 UNK         0.0747 
    114 H114      -81.7050   23.4959  -73.6631 H         1 UNK         0.0793 
    115 H115      -80.6251   22.5954  -72.6079 H         1 UNK         0.0793 
    116 H116      -80.2925   24.2842  -72.9655 H         1 UNK         0.0793 
    117 H117      -80.4190   24.7889  -75.4273 H         1 UNK         0.3047 
    118 H118      -78.8539   24.8399  -78.6753 H         1 UNK         0.0822 
    119 H119      -81.0080   26.0090  -79.0996 H         1 UNK         0.0807 
    120 H120      -81.6944   25.3281  -77.6256 H         1 UNK         0.0807 
    121 H121      -81.2500   24.2759  -78.9582 H         1 UNK         0.0807 
    122 H122      -79.8447   26.8615  -76.8448 H         1 UNK         0.2946 
    123 H123      -76.7369   27.5698  -75.3361 H         1 UNK         0.1144 
    124 H124      -76.9870   29.8498  -76.3325 H         1 UNK         0.0793 
    125 H125      -78.0261   29.1952  -77.5968 H         1 UNK         0.0793 
    126 H126      -76.3376   28.7134  -77.5037 H         1 UNK         0.0793 
    127 H127      -79.1769   29.0334  -75.3472 H         1 UNK         0.2896 
@<TRIPOS>BOND
     1    1    2 1    
     2    1   67 1    
     3    1   68 1    
     4    1   69 1    
     5    2    3 2    
     6    2    4 am   BACKBONE|DICT|INTERRES
     7    4    5 1    
     8    4   70 1    
     9    5    6 1    
    10    5   65 1    
    11    5   71 1    
    12    6    7 1    
    13    6   72 1    
    14    6   73 1    
    15    7    8 1    
    16    8    9 1    
    17    8   74 1    
    18    8   75 1    
    19    9   10 ar   
    20    9   14 ar   
    21   10   11 ar   
    22   10   76 1    
    23   11   12 ar   
    24   11   48 1    
    25   12   13 ar   
    26   12   77 1    
    27   13   14 ar   
    28   13   15 1    
    29   14   78 1    
    30   15   16 1    
    31   15   79 1    
    32   15   80 1    
    33   16   17 1    
    34   17   18 1    
    35   17   81 1    
    36   17   82 1    
    37   18   19 1    
    38   18   22 1    
    39   18   83 1    
    40   19   20 am   BACKBONE|DICT|INTERRES
    41   19   21 2    
    42   20   84 1    
    43   20   85 1    
    44   22   23 am   BACKBONE|DICT|INTERRES
    45   22   86 1    
    46   23   24 2    
    47   23   25 1    
    48   25   26 1    
    49   25   27 1    
    50   25   87 1    
    51   26   88 1    
    52   26   89 1    
    53   26   90 1    
    54   27   28 am   BACKBONE|DICT|INTERRES
    55   27   91 1    
    56   28   29 2    
    57   28   30 1    
    58   30   31 1    
    59   30   32 1    
    60   30   92 1    
    61   31   93 1    
    62   31   94 1    
    63   31   95 1    
    64   32   33 am   BACKBONE|DICT|INTERRES
    65   32   96 1    
    66   33   34 2    
    67   33   35 1    
    68   35   36 1    
    69   35   37 1    
    70   35   97 1    
    71   36   98 1    
    72   36   99 1    
    73   36  100 1    
    74   37   38 am   BACKBONE|DICT|INTERRES
    75   37  101 1    
    76   38   39 2    
    77   38   40 1    
    78   40   41 1    
    79   40   42 1    
    80   40  102 1    
    81   41  103 1    
    82   41  104 1    
    83   41  105 1    
    84   42   43 am   BACKBONE|DICT|INTERRES
    85   42  106 1    
    86   43   44 2    
    87   43   45 1    
    88   45   46 1    
    89   45   49 1    
    90   45  107 1    
    91   46   47 1    
    92   46  108 1    
    93   46  109 1    
    94   47   48 1    
    95   48  110 1    
    96   48  111 1    
    97   49   50 am   BACKBONE|DICT|INTERRES
    98   49  112 1    
    99   50   51 2    
   100   50   52 1    
   101   52   53 1    
   102   52   54 1    
   103   52  113 1    
   104   53  114 1    
   105   53  115 1    
   106   53  116 1    
   107   54   55 am   BACKBONE|DICT|INTERRES
   108   54  117 1    
   109   55   56 2    
   110   55   57 1    
   111   57   58 1    
   112   57   59 1    
   113   57  118 1    
   114   58  119 1    
   115   58  120 1    
   116   58  121 1    
   117   59   60 am   BACKBONE|DICT|INTERRES
   118   59  122 1    
   119   60   61 2    
   120   60   62 1    
   121   62   63 1    
   122   62   64 1    
   123   62  123 1    
   124   63  124 1    
   125   63  125 1    
   126   63  126 1    
   127   64   65 am   BACKBONE|DICT|INTERRES
   128   64  127 1    
   129   65   66 2    
@<TRIPOS>SUBSTRUCTURE
     1 UNK         1 GROUP             0       ****    0 ROOT    
