@<TRIPOS>MOLECULE
3R135
127   129    1
SMALL
USER_CHARGES


@<TRIPOS>ATOM
      1 CA        -82.2887   23.4299  -72.3428 C.3       0 UNK        -0.1998 
      2 C         -81.3775   24.4919  -72.9384 C.2       0 UNK         0.4909 
      3 O         -80.1642   24.2918  -72.9662 O.2       0 UNK        -0.5240 
      4 N         -81.9653   25.6029  -73.4093 N.am      1 UNK        -0.4739 
      5 CA        -81.3287   26.7530  -74.0708 C.3       1 UNK         0.0864 
      6 C6        -80.2678   27.4841  -73.2119 C.3       11 UNK        -0.0881 
      7 S7        -80.9693   28.1579  -71.6667 S.3       11 UNK        -0.2682 
      8 C8        -79.9682   29.6666  -71.4345 C.3       11 UNK         0.0289 
      9 C9        -78.4722   29.3811  -71.4823 C.ar      11 UNK        -0.0687 
     10 C10       -77.9090   28.4304  -70.6276 C.ar      11 UNK        -0.0823 
     11 C11       -76.5540   28.1032  -70.7210 C.ar      11 UNK        -0.0830 
     12 C12       -75.7473   28.7701  -71.6478 C.ar      11 UNK        -0.1021 
     13 C13       -76.2936   29.7434  -72.4908 C.ar      11 UNK        -0.0753 
     14 C14       -77.6567   30.0418  -72.4053 C.ar      11 UNK        -0.0933 
     15 C15       -75.4311   30.4454  -73.5277 C.3       11 UNK         0.0166 
     16 S16       -74.7586   32.0170  -72.9032 S.3       11 UNK        -0.2615 
     17 C17       -73.2477   31.4658  -72.0386 C.3       11 UNK        -0.0865 
     18 CA        -71.9704   31.6920  -72.8883 C.3       10 UNK         0.0862 
     19 C         -70.6988   31.3405  -72.0724 C.2       10 UNK         0.5551 
     20 N         -69.9632   32.3381  -71.6020 N.am      10 UNK        -0.7319 
     21 O         -70.4062   30.1731  -71.8230 O.2       10 UNK        -0.5018 
     22 N         -72.0285   30.9385  -74.1468 N.am      10 UNK        -0.4509 
     23 C         -71.2534   31.1488  -75.2163 C.2       10 UNK         0.4899 
     24 O         -70.4147   32.0485  -75.2910 O.2       10 UNK        -0.4839 
     25 CA        -71.4812   30.1942  -76.4066 C.3       9 UNK         0.0222 
     26 CB        -70.3601   30.2662  -77.4654 C.3       9 UNK        -0.1966 
     27 N         -71.7250   28.8069  -75.9880 N.am      9 UNK        -0.4218 
     28 C         -70.8851   28.0074  -75.3059 C.2       9 UNK         0.5020 
     29 O         -69.7484   28.3352  -74.9638 O.2       9 UNK        -0.5274 
     30 CA        -71.3909   26.6026  -74.9235 C.3       8 UNK         0.0270 
     31 CB        -71.7500   26.5588  -73.4283 C.3       8 UNK        -0.1976 
     32 N         -72.5434   26.1622  -75.7155 N.am      8 UNK        -0.4313 
     33 C         -72.4805   25.8208  -77.0131 C.2       8 UNK         0.5041 
     34 O         -71.4238   25.7515  -77.6423 O.2       8 UNK        -0.5577 
     35 CA        -73.8003   25.5273  -77.7544 C.3       7 UNK         0.0284 
     36 CB        -73.9423   24.0201  -78.0199 C.3       7 UNK        -0.1958 
     37 N         -75.0005   26.0142  -77.0678 N.am      7 UNK        -0.4454 
     38 C         -75.2847   27.3053  -76.8323 C.2       7 UNK         0.5089 
     39 O         -74.5683   28.2386  -77.1977 O.2       7 UNK        -0.5125 
     40 CA        -76.5378   27.6072  -75.9859 C.3       6 UNK         0.0408 
     41 CB        -77.7267   27.9271  -76.9005 C.3       6 UNK        -0.1791 
     42 N         -76.8995   26.5381  -75.0439 N.am      6 UNK        -0.4762 
     43 C         -76.0737   26.0572  -74.0997 C.2       6 UNK         0.5007 
     44 O         -74.9384   26.5012  -73.9230 O.2       6 UNK        -0.5032 
     45 CA        -76.5216   24.8201  -73.2918 C.3       5 UNK         0.0783 
     46 C46       -76.9239   25.1467  -71.8313 C.3       11 UNK        -0.0857 
     47 S47       -75.4726   25.5223  -70.7799 S.3       11 UNK        -0.2512 
     48 C48       -75.9817   27.0019  -69.8394 C.3       11 UNK         0.0225 
     49 N         -77.5320   23.9920  -73.9607 N.am      5 UNK        -0.4615 
     50 C         -77.3164   23.2898  -75.0803 C.2       4 UNK         0.5053 
     51 O         -76.3413   23.4572  -75.8131 O.2       4 UNK        -0.5105 
     52 CA        -78.3070   22.1643  -75.3974 C.3       4 UNK         0.0263 
     53 CB        -78.6140   21.2901  -74.1613 C.3       4 UNK        -0.1981 
     54 N         -79.5424   22.6635  -75.9998 N.am      4 UNK        -0.4224 
     55 C         -80.3405   21.9001  -76.7648 C.2       3 UNK         0.4895 
     56 O         -80.0719   20.7382  -77.0754 O.2       3 UNK        -0.5091 
     57 CA        -81.6771   22.4837  -77.2583 C.3       3 UNK         0.0250 
     58 CB        -82.8369   21.9581  -76.3955 C.3       3 UNK        -0.1996 
     59 N         -81.7225   23.9421  -77.2674 N.am      3 UNK        -0.4254 
     60 C         -81.0745   24.7325  -78.1328 C.2       2 UNK         0.5004 
     61 O         -80.4016   24.3161  -79.0757 O.2       2 UNK        -0.5226 
     62 CA        -81.1910   26.2492  -77.8928 C.3       2 UNK         0.0269 
     63 CB        -82.2327   26.8654  -78.8406 C.3       2 UNK        -0.1926 
     64 N         -81.5293   26.6054  -76.5073 N.am      2 UNK        -0.4687 
     65 C         -80.7603   26.3414  -75.4409 C.2       1 UNK         0.5165 
     66 O         -79.6710   25.7684  -75.5181 O.2       1 UNK        -0.5079 
     67 H67       -82.0838   23.3181  -71.2785 H         1 UNK         0.0900 
     68 H68       -83.3428   23.6793  -72.4629 H         1 UNK         0.0900 
     69 H69       -82.1096   22.4699  -72.8260 H         1 UNK         0.0900 
     70 H70       -82.9700   25.6764  -73.3289 H         1 UNK         0.2959 
     71 H71       -82.1291   27.4715  -74.2563 H         1 UNK         0.1079 
     72 H72       -79.8311   28.3058  -73.7831 H         1 UNK         0.0837 
     73 H73       -79.4395   26.8217  -72.9615 H         1 UNK         0.0837 
     74 H74       -80.2501   30.3946  -72.1968 H         1 UNK         0.0685 
     75 H75       -80.2164   30.1140  -70.4712 H         1 UNK         0.0685 
     76 H76       -78.5420   27.9118  -69.9204 H         1 UNK         0.1434 
     77 H77       -74.7034   28.5022  -71.7336 H         1 UNK         0.1329 
     78 H78       -78.0838   30.7798  -73.0706 H         1 UNK         0.1335 
     79 H79       -76.0295   30.6615  -74.4139 H         1 UNK         0.0680 
     80 H80       -74.6274   29.7882  -73.8620 H         1 UNK         0.0680 
     81 H81       -73.1830   32.0306  -71.1065 H         1 UNK         0.1032 
     82 H82       -73.3400   30.4196  -71.7449 H         1 UNK         0.1032 
     83 H83       -71.9287   32.7526  -73.1465 H         1 UNK         0.0461 
     84 H84       -70.2017   33.2982  -71.7969 H         1 UNK         0.3453 
     85 H85       -69.1432   32.1271  -71.0548 H         1 UNK         0.3453 
     86 H86       -72.6618   30.1557  -74.1647 H         1 UNK         0.2984 
     87 H87       -72.4030   30.5269  -76.8862 H         1 UNK         0.0554 
     88 H88       -70.2767   31.2722  -77.8782 H         1 UNK         0.0847 
     89 H89       -70.5569   29.5908  -78.2980 H         1 UNK         0.0847 
     90 H90       -69.3875   30.0072  -77.0459 H         1 UNK         0.0847 
     91 H91       -72.6327   28.4336  -76.2450 H         1 UNK         0.3141 
     92 H92       -70.5728   25.9003  -75.0970 H         1 UNK         0.0743 
     93 H93       -70.8788   26.7866  -72.8124 H         1 UNK         0.0784 
     94 H94       -72.5208   27.2879  -73.1755 H         1 UNK         0.0784 
     95 H95       -72.1099   25.5737  -73.1309 H         1 UNK         0.0784 
     96 H96       -73.4478   26.1962  -75.2527 H         1 UNK         0.3213 
     97 H97       -73.7461   26.0389  -78.7178 H         1 UNK         0.0855 
     98 H98       -73.9651   23.4487  -77.0911 H         1 UNK         0.0814 
     99 H99       -73.1038   23.6470  -78.6095 H         1 UNK         0.0814 
    100 H100      -74.8535   23.7957  -78.5747 H         1 UNK         0.0814 
    101 H101      -75.6203   25.3067  -76.6865 H         1 UNK         0.3105 
    102 H102      -76.3207   28.4956  -75.3937 H         1 UNK         0.0547 
    103 H103      -78.5911   28.2605  -76.3273 H         1 UNK         0.0837 
    104 H104      -77.4789   28.7256  -77.6012 H         1 UNK         0.0837 
    105 H105      -78.0177   27.0559  -77.4870 H         1 UNK         0.0837 
    106 H106      -77.8174   26.1127  -75.1558 H         1 UNK         0.3020 
    107 H107      -75.6326   24.1869  -73.2379 H         1 UNK         0.1245 
    108 H108      -77.4184   24.2846  -71.3807 H         1 UNK         0.0781 
    109 H109      -77.6600   25.9476  -71.8039 H         1 UNK         0.0781 
    110 H110      -75.1181   27.3896  -69.2976 H         1 UNK         0.0836 
    111 H111      -76.7048   26.6991  -69.0805 H         1 UNK         0.0836 
    112 H112      -78.4324   23.9085  -73.4906 H         1 UNK         0.3022 
    113 H113      -77.8011   21.5292  -76.1285 H         1 UNK         0.0747 
    114 H114      -79.1284   20.3717  -74.4439 H         1 UNK         0.0793 
    115 H115      -77.6965   20.9969  -73.6492 H         1 UNK         0.0793 
    116 H116      -79.2428   21.8091  -73.4379 H         1 UNK         0.0793 
    117 H117      -79.7779   23.6331  -75.8125 H         1 UNK         0.3047 
    118 H118      -81.8263   22.1335  -78.2822 H         1 UNK         0.0822 
    119 H119      -82.8562   20.8673  -76.3893 H         1 UNK         0.0807 
    120 H120      -83.8011   22.2938  -76.7778 H         1 UNK         0.0807 
    121 H121      -82.7516   22.2876  -75.3594 H         1 UNK         0.0807 
    122 H122      -82.2579   24.3854  -76.5359 H         1 UNK         0.2946 
    123 H123      -80.2186   26.6847  -78.1268 H         1 UNK         0.1144 
    124 H124      -82.2628   27.9511  -78.7463 H         1 UNK         0.0793 
    125 H125      -83.2348   26.4818  -78.6448 H         1 UNK         0.0793 
    126 H126      -81.9953   26.6400  -79.8814 H         1 UNK         0.0793 
    127 H127      -82.4155   27.0709  -76.3696 H         1 UNK         0.2896 
@<TRIPOS>BOND
     1    1    2 1    
     2    1   67 1    
     3    1   68 1    
     4    1   69 1    
     5    2    3 2    
     6    2    4 am   BACKBONE|DICT|INTERRES
     7    4    5 1    
     8    4   70 1    
     9    5    6 1    
    10    5   65 1    
    11    5   71 1    
    12    6    7 1    
    13    6   72 1    
    14    6   73 1    
    15    7    8 1    
    16    8    9 1    
    17    8   74 1    
    18    8   75 1    
    19    9   10 ar   
    20    9   14 ar   
    21   10   11 ar   
    22   10   76 1    
    23   11   12 ar   
    24   11   48 1    
    25   12   13 ar   
    26   12   77 1    
    27   13   14 ar   
    28   13   15 1    
    29   14   78 1    
    30   15   16 1    
    31   15   79 1    
    32   15   80 1    
    33   16   17 1    
    34   17   18 1    
    35   17   81 1    
    36   17   82 1    
    37   18   19 1    
    38   18   22 1    
    39   18   83 1    
    40   19   20 am   BACKBONE|DICT|INTERRES
    41   19   21 2    
    42   20   84 1    
    43   20   85 1    
    44   22   23 am   BACKBONE|DICT|INTERRES
    45   22   86 1    
    46   23   24 2    
    47   23   25 1    
    48   25   26 1    
    49   25   27 1    
    50   25   87 1    
    51   26   88 1    
    52   26   89 1    
    53   26   90 1    
    54   27   28 am   BACKBONE|DICT|INTERRES
    55   27   91 1    
    56   28   29 2    
    57   28   30 1    
    58   30   31 1    
    59   30   32 1    
    60   30   92 1    
    61   31   93 1    
    62   31   94 1    
    63   31   95 1    
    64   32   33 am   BACKBONE|DICT|INTERRES
    65   32   96 1    
    66   33   34 2    
    67   33   35 1    
    68   35   36 1    
    69   35   37 1    
    70   35   97 1    
    71   36   98 1    
    72   36   99 1    
    73   36  100 1    
    74   37   38 am   BACKBONE|DICT|INTERRES
    75   37  101 1    
    76   38   39 2    
    77   38   40 1    
    78   40   41 1    
    79   40   42 1    
    80   40  102 1    
    81   41  103 1    
    82   41  104 1    
    83   41  105 1    
    84   42   43 am   BACKBONE|DICT|INTERRES
    85   42  106 1    
    86   43   44 2    
    87   43   45 1    
    88   45   46 1    
    89   45   49 1    
    90   45  107 1    
    91   46   47 1    
    92   46  108 1    
    93   46  109 1    
    94   47   48 1    
    95   48  110 1    
    96   48  111 1    
    97   49   50 am   BACKBONE|DICT|INTERRES
    98   49  112 1    
    99   50   51 2    
   100   50   52 1    
   101   52   53 1    
   102   52   54 1    
   103   52  113 1    
   104   53  114 1    
   105   53  115 1    
   106   53  116 1    
   107   54   55 am   BACKBONE|DICT|INTERRES
   108   54  117 1    
   109   55   56 2    
   110   55   57 1    
   111   57   58 1    
   112   57   59 1    
   113   57  118 1    
   114   58  119 1    
   115   58  120 1    
   116   58  121 1    
   117   59   60 am   BACKBONE|DICT|INTERRES
   118   59  122 1    
   119   60   61 2    
   120   60   62 1    
   121   62   63 1    
   122   62   64 1    
   123   62  123 1    
   124   63  124 1    
   125   63  125 1    
   126   63  126 1    
   127   64   65 am   BACKBONE|DICT|INTERRES
   128   64  127 1    
   129   65   66 2    
@<TRIPOS>SUBSTRUCTURE
     1 UNK         1 GROUP             0       ****    0 ROOT    
