@<TRIPOS>MOLECULE
3R135
127   129    1
SMALL
USER_CHARGES


@<TRIPOS>ATOM
      1 CA        -86.4823   25.6118  -72.0934 C.3       0 UNK        -0.1998 
      2 C         -85.1603   26.2539  -72.4869 C.2       0 UNK         0.4909 
      3 O         -85.1553   27.3451  -73.0579 O.2       0 UNK        -0.5240 
      4 N         -84.0385   25.5906  -72.1788 N.am      1 UNK        -0.4739 
      5 CA        -82.6879   26.0238  -72.5454 C.3       1 UNK         0.0864 
      6 C6        -81.6234   25.2759  -71.6995 C.3       11 UNK        -0.0881 
      7 S7        -79.9051   25.7696  -72.0672 S.3       11 UNK        -0.2682 
      8 C8        -79.6613   27.1508  -70.9103 C.3       11 UNK         0.0289 
      9 C9        -78.5351   28.0441  -71.4028 C.ar      11 UNK        -0.0687 
     10 C10       -78.8158   29.1134  -72.2573 C.ar      11 UNK        -0.0823 
     11 C11       -77.7830   29.9026  -72.7719 C.ar      11 UNK        -0.0830 
     12 C12       -76.4607   29.6164  -72.4199 C.ar      11 UNK        -0.1021 
     13 C13       -76.1676   28.5488  -71.5645 C.ar      11 UNK        -0.0753 
     14 C14       -77.2110   27.7777  -71.0446 C.ar      11 UNK        -0.0933 
     15 C15       -74.7227   28.1886  -71.2572 C.3       11 UNK         0.0166 
     16 S16       -73.8390   29.5502  -70.4342 S.3       11 UNK        -0.2615 
     17 C17       -72.1178   28.9509  -70.5272 C.3       11 UNK        -0.0865 
     18 CA        -71.3393   29.5749  -71.7149 C.3       10 UNK         0.0862 
     19 C         -69.8372   29.1945  -71.6472 C.2       10 UNK         0.5551 
     20 N         -68.9733   30.1248  -71.2659 N.am      10 UNK        -0.7319 
     21 O         -69.4608   28.0499  -71.8908 O.2       10 UNK        -0.5018 
     22 N         -71.9256   29.1828  -73.0022 N.am      10 UNK        -0.4509 
     23 C         -71.7194   29.8030  -74.1694 C.2       10 UNK         0.4899 
     24 O         -71.0598   30.8367  -74.2898 O.2       10 UNK        -0.4839 
     25 CA        -72.3808   29.1524  -75.4020 C.3       9 UNK         0.0222 
     26 CB        -71.8388   29.7027  -76.7389 C.3       9 UNK        -0.1966 
     27 N         -72.3223   27.6836  -75.3680 N.am      9 UNK        -0.4218 
     28 C         -71.2157   26.9233  -75.3662 C.2       9 UNK         0.5020 
     29 O         -70.0697   27.3628  -75.4662 O.2       9 UNK        -0.5274 
     30 CA        -71.4191   25.4112  -75.2176 C.3       8 UNK         0.0270 
     31 CB        -71.6874   25.0445  -73.7464 C.3       8 UNK        -0.1976 
     32 N         -72.5176   24.9251  -76.0576 N.am      8 UNK        -0.4313 
     33 C         -72.3448   24.2362  -77.1931 C.2       8 UNK         0.5041 
     34 O         -71.2424   23.9850  -77.6831 O.2       8 UNK        -0.5577 
     35 CA        -73.6034   23.6939  -77.8879 C.3       7 UNK         0.0284 
     36 CB        -74.1364   22.4548  -77.1498 C.3       7 UNK        -0.1958 
     37 N         -74.6757   24.6792  -78.0460 N.am      7 UNK        -0.4454 
     38 C         -74.6542   25.6685  -78.9512 C.2       7 UNK         0.5089 
     39 O         -73.6841   25.9253  -79.6650 O.2       7 UNK        -0.5125 
     40 CA        -75.9452   26.4885  -79.1178 C.3       6 UNK         0.0408 
     41 CB        -77.0156   25.6802  -79.8692 C.3       6 UNK        -0.1791 
     42 N         -76.4860   26.9382  -77.8383 N.am      6 UNK        -0.4762 
     43 C         -75.9668   27.9318  -77.1048 C.2       6 UNK         0.5007 
     44 O         -75.0220   28.6299  -77.4691 O.2       6 UNK        -0.5032 
     45 CA        -76.5904   28.1543  -75.7127 C.3       5 UNK         0.0783 
     46 C46       -77.8384   29.0765  -75.7815 C.3       11 UNK        -0.0857 
     47 S47       -77.3936   30.8042  -75.3959 S.3       11 UNK        -0.2512 
     48 C48       -78.1029   31.0441  -73.7303 C.3       11 UNK         0.0225 
     49 N         -76.8659   26.8805  -75.0425 N.am      5 UNK        -0.4615 
     50 C         -75.9178   26.0175  -74.6533 C.2       4 UNK         0.5053 
     51 O         -74.7113   26.2468  -74.7461 O.2       4 UNK        -0.5105 
     52 CA        -76.3752   24.6489  -74.1236 C.3       4 UNK         0.0263 
     53 CB        -76.3407   24.6076  -72.5906 C.3       4 UNK        -0.1981 
     54 N         -77.7017   24.2594  -74.6136 N.am      4 UNK        -0.4224 
     55 C         -77.9347   23.8785  -75.8779 C.2       3 UNK         0.4895 
     56 O         -77.0595   23.8087  -76.7406 O.2       3 UNK        -0.5091 
     57 CA        -79.3911   23.5735  -76.2586 C.3       3 UNK         0.0250 
     58 CB        -79.8890   22.2962  -75.5625 C.3       3 UNK        -0.1996 
     59 N         -80.3152   24.6761  -75.9815 N.am      3 UNK        -0.4254 
     60 C         -80.2152   25.9294  -76.4438 C.2       2 UNK         0.5004 
     61 O         -79.2718   26.3326  -77.1233 O.2       2 UNK        -0.5226 
     62 CA        -81.3397   26.9161  -76.0782 C.3       2 UNK         0.0269 
     63 CB        -82.5123   26.8126  -77.0725 C.3       2 UNK        -0.1926 
     64 N         -81.7987   26.8357  -74.6821 N.am      2 UNK        -0.4687 
     65 C         -82.4599   25.8458  -74.0626 C.2       1 UNK         0.5165 
     66 O         -82.8227   24.8041  -74.6154 O.2       1 UNK        -0.5079 
     67 H67       -87.0356   26.2711  -71.4250 H         1 UNK         0.0900 
     68 H68       -87.0915   25.4351  -72.9796 H         1 UNK         0.0900 
     69 H69       -86.3377   24.6582  -71.5858 H         1 UNK         0.0900 
     70 H70       -84.1052   24.6839  -71.7385 H         1 UNK         0.2959 
     71 H71       -82.6135   27.0884  -72.3121 H         1 UNK         0.1079 
     72 H72       -81.8129   25.4295  -70.6357 H         1 UNK         0.0837 
     73 H73       -81.7009   24.1992  -71.8630 H         1 UNK         0.0837 
     74 H74       -80.5817   27.7295  -70.8188 H         1 UNK         0.0685 
     75 H75       -79.4374   26.7604  -69.9164 H         1 UNK         0.0685 
     76 H76       -79.8399   29.3164  -72.5385 H         1 UNK         0.1434 
     77 H77       -75.6560   30.2111  -72.8305 H         1 UNK         0.1329 
     78 H78       -76.9926   26.9434  -70.3922 H         1 UNK         0.1335 
     79 H79       -74.6675   27.2999  -70.6265 H         1 UNK         0.0680 
     80 H80       -74.2303   27.9321  -72.1950 H         1 UNK         0.0680 
     81 H81       -71.6348   29.2126  -69.5836 H         1 UNK         0.1032 
     82 H82       -72.1023   27.8602  -70.5766 H         1 UNK         0.1032 
     83 H83       -71.4220   30.6610  -71.6314 H         1 UNK         0.0461 
     84 H84       -67.9955   29.8888  -71.1999 H         1 UNK         0.3453 
     85 H85       -69.2770   31.0637  -71.0583 H         1 UNK         0.3453 
     86 H86       -72.4407   28.3172  -73.0081 H         1 UNK         0.2984 
     87 H87       -73.4379   29.4138  -75.3458 H         1 UNK         0.0554 
     88 H88       -72.0286   30.7731  -76.8247 H         1 UNK         0.0847 
     89 H89       -72.3203   29.2208  -77.5898 H         1 UNK         0.0847 
     90 H90       -70.7628   29.5554  -76.8345 H         1 UNK         0.0847 
     91 H91       -73.2165   27.2113  -75.2504 H         1 UNK         0.3141 
     92 H92       -70.4826   24.9277  -75.5044 H         1 UNK         0.0743 
     93 H93       -72.6074   25.4903  -73.3687 H         1 UNK         0.0784 
     94 H94       -71.7637   23.9648  -73.6177 H         1 UNK         0.0784 
     95 H95       -70.8740   25.3900  -73.1063 H         1 UNK         0.0784 
     96 H96       -73.4577   25.1431  -75.7429 H         1 UNK         0.3213 
     97 H97       -73.3047   23.3703  -78.8879 H         1 UNK         0.0855 
     98 H98       -74.4720   22.6946  -76.1412 H         1 UNK         0.0814 
     99 H99       -73.3633   21.6901  -77.0623 H         1 UNK         0.0814 
    100 H100      -74.9755   22.0069  -77.6824 H         1 UNK         0.0814 
    101 H101      -75.5387   24.5033  -77.5340 H         1 UNK         0.3105 
    102 H102      -75.7088   27.3685  -79.7200 H         1 UNK         0.0547 
    103 H103      -76.6418   25.3405  -80.8359 H         1 UNK         0.0837 
    104 H104      -77.3266   24.7970  -79.3099 H         1 UNK         0.0837 
    105 H105      -77.9046   26.2822  -80.0578 H         1 UNK         0.0837 
    106 H106      -77.3098   26.4559  -77.4890 H         1 UNK         0.3020 
    107 H107      -75.8237   28.6425  -75.1071 H         1 UNK         0.1245 
    108 H108      -78.6097   28.7449  -75.0863 H         1 UNK         0.0781 
    109 H109      -78.3192   29.0481  -76.7618 H         1 UNK         0.0781 
    110 H110      -79.1816   31.1750  -73.8291 H         1 UNK         0.0836 
    111 H111      -77.7208   31.9774  -73.3146 H         1 UNK         0.0836 
    112 H112      -77.8330   26.6072  -74.9608 H         1 UNK         0.3022 
    113 H113      -75.6530   23.9136  -74.4824 H         1 UNK         0.0747 
    114 H114      -76.5460   23.6046  -72.2166 H         1 UNK         0.0793 
    115 H115      -75.3604   24.9012  -72.2121 H         1 UNK         0.0793 
    116 H116      -77.0733   25.2820  -72.1550 H         1 UNK         0.0793 
    117 H117      -78.4733   24.3172  -73.9631 H         1 UNK         0.3047 
    118 H118      -79.4122   23.4007  -77.3366 H         1 UNK         0.0822 
    119 H119      -80.8724   22.0038  -75.9314 H         1 UNK         0.0807 
    120 H120      -79.9639   22.4233  -74.4818 H         1 UNK         0.0807 
    121 H121      -79.2134   21.4600  -75.7485 H         1 UNK         0.0807 
    122 H122      -81.1508   24.4551  -75.4467 H         1 UNK         0.2946 
    123 H123      -80.9133   27.9147  -76.1895 H         1 UNK         0.1144 
    124 H124      -83.2813   27.5544  -76.8568 H         1 UNK         0.0793 
    125 H125      -82.9814   25.8286  -77.0554 H         1 UNK         0.0793 
    126 H126      -82.1704   26.9879  -78.0935 H         1 UNK         0.0793 
    127 H127      -81.5222   27.6226  -74.1119 H         1 UNK         0.2896 
@<TRIPOS>BOND
     1    1    2 1    
     2    1   67 1    
     3    1   68 1    
     4    1   69 1    
     5    2    3 2    
     6    2    4 am   BACKBONE|DICT|INTERRES
     7    4    5 1    
     8    4   70 1    
     9    5    6 1    
    10    5   65 1    
    11    5   71 1    
    12    6    7 1    
    13    6   72 1    
    14    6   73 1    
    15    7    8 1    
    16    8    9 1    
    17    8   74 1    
    18    8   75 1    
    19    9   10 ar   
    20    9   14 ar   
    21   10   11 ar   
    22   10   76 1    
    23   11   12 ar   
    24   11   48 1    
    25   12   13 ar   
    26   12   77 1    
    27   13   14 ar   
    28   13   15 1    
    29   14   78 1    
    30   15   16 1    
    31   15   79 1    
    32   15   80 1    
    33   16   17 1    
    34   17   18 1    
    35   17   81 1    
    36   17   82 1    
    37   18   19 1    
    38   18   22 1    
    39   18   83 1    
    40   19   20 am   BACKBONE|DICT|INTERRES
    41   19   21 2    
    42   20   84 1    
    43   20   85 1    
    44   22   23 am   BACKBONE|DICT|INTERRES
    45   22   86 1    
    46   23   24 2    
    47   23   25 1    
    48   25   26 1    
    49   25   27 1    
    50   25   87 1    
    51   26   88 1    
    52   26   89 1    
    53   26   90 1    
    54   27   28 am   BACKBONE|DICT|INTERRES
    55   27   91 1    
    56   28   29 2    
    57   28   30 1    
    58   30   31 1    
    59   30   32 1    
    60   30   92 1    
    61   31   93 1    
    62   31   94 1    
    63   31   95 1    
    64   32   33 am   BACKBONE|DICT|INTERRES
    65   32   96 1    
    66   33   34 2    
    67   33   35 1    
    68   35   36 1    
    69   35   37 1    
    70   35   97 1    
    71   36   98 1    
    72   36   99 1    
    73   36  100 1    
    74   37   38 am   BACKBONE|DICT|INTERRES
    75   37  101 1    
    76   38   39 2    
    77   38   40 1    
    78   40   41 1    
    79   40   42 1    
    80   40  102 1    
    81   41  103 1    
    82   41  104 1    
    83   41  105 1    
    84   42   43 am   BACKBONE|DICT|INTERRES
    85   42  106 1    
    86   43   44 2    
    87   43   45 1    
    88   45   46 1    
    89   45   49 1    
    90   45  107 1    
    91   46   47 1    
    92   46  108 1    
    93   46  109 1    
    94   47   48 1    
    95   48  110 1    
    96   48  111 1    
    97   49   50 am   BACKBONE|DICT|INTERRES
    98   49  112 1    
    99   50   51 2    
   100   50   52 1    
   101   52   53 1    
   102   52   54 1    
   103   52  113 1    
   104   53  114 1    
   105   53  115 1    
   106   53  116 1    
   107   54   55 am   BACKBONE|DICT|INTERRES
   108   54  117 1    
   109   55   56 2    
   110   55   57 1    
   111   57   58 1    
   112   57   59 1    
   113   57  118 1    
   114   58  119 1    
   115   58  120 1    
   116   58  121 1    
   117   59   60 am   BACKBONE|DICT|INTERRES
   118   59  122 1    
   119   60   61 2    
   120   60   62 1    
   121   62   63 1    
   122   62   64 1    
   123   62  123 1    
   124   63  124 1    
   125   63  125 1    
   126   63  126 1    
   127   64   65 am   BACKBONE|DICT|INTERRES
   128   64  127 1    
   129   65   66 2    
@<TRIPOS>SUBSTRUCTURE
     1 UNK         1 GROUP             0       ****    0 ROOT    
