@<TRIPOS>MOLECULE
3R135
127   129    1
SMALL
USER_CHARGES


@<TRIPOS>ATOM
      1 CA        -84.8959   23.8623  -73.9829 C.3       0 UNK        -0.1998 
      2 C         -84.0343   25.0681  -73.6411 C.2       0 UNK         0.4909 
      3 O         -84.3944   26.1965  -73.9793 O.2       0 UNK        -0.5240 
      4 N         -82.8888   24.8424  -72.9840 N.am      1 UNK        -0.4739 
      5 CA        -81.9179   25.8669  -72.5797 C.3       1 UNK         0.0864 
      6 C6        -81.1007   25.3843  -71.3503 C.3       11 UNK        -0.0881 
      7 S7        -80.3127   26.7512  -70.4289 S.3       11 UNK        -0.2682 
      8 C8        -78.5409   26.3609  -70.6261 C.3       11 UNK         0.0289 
      9 C9        -77.6981   27.6077  -70.8447 C.ar      11 UNK        -0.0687 
     10 C10       -77.9750   28.4427  -71.9266 C.ar      11 UNK        -0.0823 
     11 C11       -77.1858   29.5639  -72.1832 C.ar      11 UNK        -0.0830 
     12 C12       -76.1192   29.8615  -71.3305 C.ar      11 UNK        -0.1021 
     13 C13       -75.8234   29.0353  -70.2362 C.ar      11 UNK        -0.0753 
     14 C14       -76.6222   27.9086  -70.0044 C.ar      11 UNK        -0.0933 
     15 C15       -74.6774   29.3200  -69.2609 C.3       11 UNK         0.0166 
     16 S16       -73.4702   30.5949  -69.7718 S.3       11 UNK        -0.2615 
     17 C17       -72.5639   29.7522  -71.1153 C.3       11 UNK        -0.0865 
     18 CA        -72.4688   30.6075  -72.4065 C.3       10 UNK         0.0862 
     19 C         -71.4614   31.7819  -72.2551 C.2       10 UNK         0.5551 
     20 N         -71.9443   32.9966  -72.0332 N.am      10 UNK        -0.7319 
     21 O         -70.2476   31.5909  -72.3068 O.2       10 UNK        -0.5018 
     22 N         -72.1413   29.7550  -73.5537 N.am      10 UNK        -0.4509 
     23 C         -72.1928   30.1158  -74.8405 C.2       10 UNK         0.4899 
     24 O         -72.5896   31.2157  -75.2259 O.2       10 UNK        -0.4839 
     25 CA        -71.7472   29.0766  -75.8884 C.3       9 UNK         0.0222 
     26 CB        -70.2662   29.2685  -76.2696 C.3       9 UNK        -0.1966 
     27 N         -72.0454   27.6793  -75.5344 N.am      9 UNK        -0.4218 
     28 C         -71.5065   26.9173  -74.5711 C.2       9 UNK         0.5020 
     29 O         -70.6194   27.3058  -73.8102 O.2       9 UNK        -0.5274 
     30 CA        -72.0893   25.5105  -74.3594 C.3       8 UNK         0.0270 
     31 CB        -73.0727   25.5240  -73.1759 C.3       8 UNK        -0.1976 
     32 N         -72.7619   24.9450  -75.5315 N.am      8 UNK        -0.4313 
     33 C         -72.1448   24.4845  -76.6285 C.2       8 UNK         0.5041 
     34 O         -70.9290   24.5571  -76.8108 O.2       8 UNK        -0.5577 
     35 CA        -73.0265   23.8106  -77.6923 C.3       7 UNK         0.0284 
     36 CB        -73.4072   22.3863  -77.2539 C.3       7 UNK        -0.1958 
     37 N         -74.2449   24.5810  -77.9436 N.am      7 UNK        -0.4454 
     38 C         -74.4216   25.4135  -78.9789 C.2       7 UNK         0.5089 
     39 O         -73.6008   25.5634  -79.8848 O.2       7 UNK        -0.5125 
     40 CA        -75.7293   26.2327  -79.0189 C.3       6 UNK         0.0408 
     41 CB        -76.7672   25.5402  -79.9157 C.3       6 UNK        -0.1791 
     42 N         -76.3320   26.4894  -77.7075 N.am      6 UNK        -0.4762 
     43 C         -75.7309   27.1151  -76.6848 C.2       6 UNK         0.5007 
     44 O         -74.5909   27.5725  -76.7385 O.2       6 UNK        -0.5032 
     45 CA        -76.5132   27.1725  -75.3573 C.3       5 UNK         0.0783 
     46 C46       -77.4532   28.4044  -75.3460 C.3       11 UNK        -0.0857 
     47 S47       -76.5842   29.9377  -74.8644 S.3       11 UNK        -0.2512 
     48 C48       -77.4943   30.4574  -73.3747 C.3       11 UNK         0.0225 
     49 N         -77.2229   25.9153  -75.0630 N.am      5 UNK        -0.4615 
     50 C         -76.6658   24.6927  -75.0327 C.2       4 UNK         0.5053 
     51 O         -75.4664   24.4865  -75.2105 O.2       4 UNK        -0.5105 
     52 CA        -77.5954   23.4864  -74.8415 C.3       4 UNK         0.0263 
     53 CB        -77.8388   23.1945  -73.3547 C.3       4 UNK        -0.1981 
     54 N         -78.8693   23.6837  -75.5311 N.am      4 UNK        -0.4224 
     55 C         -79.0595   23.4415  -76.8364 C.2       3 UNK         0.4895 
     56 O         -78.2146   22.9275  -77.5693 O.2       3 UNK        -0.5091 
     57 CA        -80.4133   23.8635  -77.4352 C.3       3 UNK         0.0250 
     58 CB        -81.4323   22.7178  -77.3259 C.3       3 UNK        -0.1996 
     59 N         -80.9704   25.0678  -76.8141 N.am      3 UNK        -0.4254 
     60 C         -80.4120   26.2856  -76.8676 C.2       2 UNK         0.5004 
     61 O         -79.3799   26.5413  -77.4888 O.2       2 UNK        -0.5226 
     62 CA        -81.0962   27.3911  -76.0438 C.3       2 UNK         0.0269 
     63 CB        -82.1695   28.0988  -76.8850 C.3       2 UNK        -0.1926 
     64 N         -81.6967   26.9176  -74.7893 N.am      2 UNK        -0.4687 
     65 C         -81.0541   26.2953  -73.7900 C.2       1 UNK         0.5165 
     66 O         -79.8557   26.0118  -73.8390 O.2       1 UNK        -0.5079 
     67 H67       -85.8807   23.9651  -73.5281 H         1 UNK         0.0900 
     68 H68       -85.0251   23.7874  -75.0623 H         1 UNK         0.0900 
     69 H69       -84.4543   22.9312  -73.6285 H         1 UNK         0.0900 
     70 H70       -82.6380   23.8915  -72.7515 H         1 UNK         0.2959 
     71 H71       -82.4791   26.7514  -72.2683 H         1 UNK         0.1079 
     72 H72       -81.7702   24.8948  -70.6409 H         1 UNK         0.0837 
     73 H73       -80.3740   24.6202  -71.6286 H         1 UNK         0.0837 
     74 H74       -78.2014   25.8003  -69.7540 H         1 UNK         0.0685 
     75 H75       -78.3884   25.7158  -71.4886 H         1 UNK         0.0685 
     76 H76       -78.8146   28.2093  -72.5647 H         1 UNK         0.1434 
     77 H77       -75.5295   30.7439  -71.5286 H         1 UNK         0.1329 
     78 H78       -76.4031   27.2622  -69.1653 H         1 UNK         0.1335 
     79 H79       -74.1352   28.3956  -69.0555 H         1 UNK         0.0680 
     80 H80       -75.1138   29.6354  -68.3122 H         1 UNK         0.0680 
     81 H81       -71.5721   29.4690  -70.7570 H         1 UNK         0.1032 
     82 H82       -73.0768   28.8143  -71.3355 H         1 UNK         0.1032 
     83 H83       -73.4562   31.0251  -72.6127 H         1 UNK         0.0461 
     84 H84       -71.3047   33.7673  -71.9204 H         1 UNK         0.3453 
     85 H85       -72.9376   33.1552  -71.9687 H         1 UNK         0.3453 
     86 H86       -71.6989   28.8655  -73.3486 H         1 UNK         0.2984 
     87 H87       -72.3389   29.2735  -76.7837 H         1 UNK         0.0554 
     88 H88       -70.0937   30.2738  -76.6560 H         1 UNK         0.0847 
     89 H89       -69.9617   28.5659  -77.0453 H         1 UNK         0.0847 
     90 H90       -69.6022   29.1354  -75.4152 H         1 UNK         0.0847 
     91 H91       -72.8463   27.3009  -76.0354 H         1 UNK         0.3141 
     92 H92       -71.2572   24.8518  -74.1017 H         1 UNK         0.0743 
     93 H93       -72.5895   25.8875  -72.2679 H         1 UNK         0.0784 
     94 H94       -73.9295   26.1700  -73.3695 H         1 UNK         0.0784 
     95 H95       -73.4507   24.5239  -72.9622 H         1 UNK         0.0784 
     96 H96       -73.7692   24.8067  -75.4459 H         1 UNK         0.3213 
     97 H97       -72.4373   23.7298  -78.6085 H         1 UNK         0.0855 
     98 H98       -74.0051   22.3850  -76.3416 H         1 UNK         0.0814 
     99 H99       -72.5164   21.7866  -77.0614 H         1 UNK         0.0814 
    100 H100      -73.9800   21.8755  -78.0280 H         1 UNK         0.0814 
    101 H101      -74.9588   24.5482  -77.2252 H         1 UNK         0.3105 
    102 H102      -75.4906   27.2028  -79.4590 H         1 UNK         0.0547 
    103 H103      -77.0596   24.5686  -79.5156 H         1 UNK         0.0837 
    104 H104      -77.6690   26.1439  -80.0203 H         1 UNK         0.0837 
    105 H105      -76.3700   25.3744  -80.9181 H         1 UNK         0.0837 
    106 H106      -77.2961   26.1965  -77.5823 H         1 UNK         0.3020 
    107 H107      -75.7800   27.2897  -74.5565 H         1 UNK         0.1245 
    108 H108      -78.2812   28.2379  -74.6627 H         1 UNK         0.0781 
    109 H109      -77.9227   28.5635  -76.3189 H         1 UNK         0.0781 
    110 H110      -78.5657   30.4676  -73.5815 H         1 UNK         0.0836 
    111 H111      -77.2234   31.4882  -73.1415 H         1 UNK         0.0836 
    112 H112      -78.2100   25.9942  -74.8390 H         1 UNK         0.3022 
    113 H113      -77.0900   22.6163  -75.2668 H         1 UNK         0.0747 
    114 H114      -78.4184   23.9820  -72.8802 H         1 UNK         0.0793 
    115 H115      -78.3804   22.2580  -73.2216 H         1 UNK         0.0793 
    116 H116      -76.8964   23.1050  -72.8122 H         1 UNK         0.0793 
    117 H117      -79.5940   24.1615  -75.0121 H         1 UNK         0.3047 
    118 H118      -80.2497   24.0798  -78.4933 H         1 UNK         0.0822 
    119 H119      -81.0520   21.8119  -77.8005 H         1 UNK         0.0807 
    120 H120      -82.3696   22.9711  -77.8216 H         1 UNK         0.0807 
    121 H121      -81.6565   22.4717  -76.2871 H         1 UNK         0.0807 
    122 H122      -81.8215   24.9590  -76.2825 H         1 UNK         0.2946 
    123 H123      -80.3335   28.1262  -75.7863 H         1 UNK         0.1144 
    124 H124      -82.5912   28.9520  -76.3533 H         1 UNK         0.0793 
    125 H125      -82.9888   27.4268  -77.1440 H         1 UNK         0.0793 
    126 H126      -81.7488   28.4767  -77.8181 H         1 UNK         0.0793 
    127 H127      -82.6998   27.0383  -74.6855 H         1 UNK         0.2896 
@<TRIPOS>BOND
     1    1    2 1    
     2    1   67 1    
     3    1   68 1    
     4    1   69 1    
     5    2    3 2    
     6    2    4 am   BACKBONE|DICT|INTERRES
     7    4    5 1    
     8    4   70 1    
     9    5    6 1    
    10    5   65 1    
    11    5   71 1    
    12    6    7 1    
    13    6   72 1    
    14    6   73 1    
    15    7    8 1    
    16    8    9 1    
    17    8   74 1    
    18    8   75 1    
    19    9   10 ar   
    20    9   14 ar   
    21   10   11 ar   
    22   10   76 1    
    23   11   12 ar   
    24   11   48 1    
    25   12   13 ar   
    26   12   77 1    
    27   13   14 ar   
    28   13   15 1    
    29   14   78 1    
    30   15   16 1    
    31   15   79 1    
    32   15   80 1    
    33   16   17 1    
    34   17   18 1    
    35   17   81 1    
    36   17   82 1    
    37   18   19 1    
    38   18   22 1    
    39   18   83 1    
    40   19   20 am   BACKBONE|DICT|INTERRES
    41   19   21 2    
    42   20   84 1    
    43   20   85 1    
    44   22   23 am   BACKBONE|DICT|INTERRES
    45   22   86 1    
    46   23   24 2    
    47   23   25 1    
    48   25   26 1    
    49   25   27 1    
    50   25   87 1    
    51   26   88 1    
    52   26   89 1    
    53   26   90 1    
    54   27   28 am   BACKBONE|DICT|INTERRES
    55   27   91 1    
    56   28   29 2    
    57   28   30 1    
    58   30   31 1    
    59   30   32 1    
    60   30   92 1    
    61   31   93 1    
    62   31   94 1    
    63   31   95 1    
    64   32   33 am   BACKBONE|DICT|INTERRES
    65   32   96 1    
    66   33   34 2    
    67   33   35 1    
    68   35   36 1    
    69   35   37 1    
    70   35   97 1    
    71   36   98 1    
    72   36   99 1    
    73   36  100 1    
    74   37   38 am   BACKBONE|DICT|INTERRES
    75   37  101 1    
    76   38   39 2    
    77   38   40 1    
    78   40   41 1    
    79   40   42 1    
    80   40  102 1    
    81   41  103 1    
    82   41  104 1    
    83   41  105 1    
    84   42   43 am   BACKBONE|DICT|INTERRES
    85   42  106 1    
    86   43   44 2    
    87   43   45 1    
    88   45   46 1    
    89   45   49 1    
    90   45  107 1    
    91   46   47 1    
    92   46  108 1    
    93   46  109 1    
    94   47   48 1    
    95   48  110 1    
    96   48  111 1    
    97   49   50 am   BACKBONE|DICT|INTERRES
    98   49  112 1    
    99   50   51 2    
   100   50   52 1    
   101   52   53 1    
   102   52   54 1    
   103   52  113 1    
   104   53  114 1    
   105   53  115 1    
   106   53  116 1    
   107   54   55 am   BACKBONE|DICT|INTERRES
   108   54  117 1    
   109   55   56 2    
   110   55   57 1    
   111   57   58 1    
   112   57   59 1    
   113   57  118 1    
   114   58  119 1    
   115   58  120 1    
   116   58  121 1    
   117   59   60 am   BACKBONE|DICT|INTERRES
   118   59  122 1    
   119   60   61 2    
   120   60   62 1    
   121   62   63 1    
   122   62   64 1    
   123   62  123 1    
   124   63  124 1    
   125   63  125 1    
   126   63  126 1    
   127   64   65 am   BACKBONE|DICT|INTERRES
   128   64  127 1    
   129   65   66 2    
@<TRIPOS>SUBSTRUCTURE
     1 UNK         1 GROUP             0       ****    0 ROOT    
