@<TRIPOS>MOLECULE
3R135
127   129    1
SMALL
USER_CHARGES


@<TRIPOS>ATOM
      1 CA        -79.7074   21.6723  -72.2824 C.3       0 UNK        -0.1998 
      2 C         -80.5207   22.9218  -72.5824 C.2       0 UNK         0.4909 
      3 O         -81.3027   22.9307  -73.5333 O.2       0 UNK        -0.5240 
      4 N         -80.3280   23.9781  -71.7814 N.am      1 UNK        -0.4739 
      5 CA        -80.9799   25.2897  -71.8828 C.3       1 UNK         0.0864 
      6 C6        -80.5262   26.1891  -70.7069 C.3       11 UNK        -0.0881 
      7 S7        -81.4814   27.7351  -70.5546 S.3       11 UNK        -0.2682 
      8 C8        -80.2168   28.8681  -69.8904 C.3       11 UNK         0.0289 
      9 C9        -79.1440   29.2093  -70.9166 C.ar      11 UNK        -0.0687 
     10 C10       -79.4513   30.0419  -71.9956 C.ar      11 UNK        -0.0823 
     11 C11       -78.4771   30.3778  -72.9403 C.ar      11 UNK        -0.0830 
     12 C12       -77.1770   29.8840  -72.7822 C.ar      11 UNK        -0.1021 
     13 C13       -76.8581   29.0330  -71.7198 C.ar      11 UNK        -0.0753 
     14 C14       -77.8455   28.7057  -70.7854 C.ar      11 UNK        -0.0933 
     15 C15       -75.4618   28.4370  -71.5962 C.3       11 UNK         0.0166 
     16 S16       -74.3333   29.5146  -70.6579 S.3       11 UNK        -0.2615 
     17 C17       -73.6699   30.5988  -71.9723 C.3       11 UNK        -0.0865 
     18 CA        -72.2210   30.2730  -72.4484 C.3       10 UNK         0.0862 
     19 C         -71.0640   30.6544  -71.4733 C.2       10 UNK         0.5551 
     20 N         -71.3471   31.2357  -70.3149 N.am      10 UNK        -0.7319 
     21 O         -69.8915   30.4829  -71.8017 O.2       10 UNK        -0.5018 
     22 N         -72.1036   28.9437  -73.0773 N.am      10 UNK        -0.4509 
     23 C         -71.7713   27.7770  -72.5006 C.2       10 UNK         0.4899 
     24 O         -71.4982   27.6434  -71.3073 O.2       10 UNK        -0.4839 
     25 CA        -71.7537   26.5267  -73.4028 C.3       9 UNK         0.0222 
     26 CB        -72.5121   25.3608  -72.7433 C.3       9 UNK        -0.1966 
     27 N         -72.3488   26.7747  -74.7183 N.am      9 UNK        -0.4218 
     28 C         -71.6775   26.9627  -75.8577 C.2       9 UNK         0.5020 
     29 O         -70.4475   26.9751  -75.9459 O.2       9 UNK        -0.5274 
     30 CA        -72.5297   27.2130  -77.1089 C.3       8 UNK         0.0270 
     31 CB        -72.5314   28.7120  -77.4496 C.3       8 UNK        -0.1976 
     32 N         -71.9582   26.4758  -78.2333 N.am      8 UNK        -0.4313 
     33 C         -72.2964   25.2710  -78.7177 C.2       8 UNK         0.5041 
     34 O         -71.5847   24.7166  -79.5546 O.2       8 UNK        -0.5577 
     35 CA        -73.5852   24.5360  -78.2728 C.3       7 UNK         0.0284 
     36 CB        -73.4403   23.8979  -76.8794 C.3       7 UNK        -0.1958 
     37 N         -74.8459   25.2833  -78.3657 N.am      7 UNK        -0.4454 
     38 C         -75.2944   25.9627  -79.4318 C.2       7 UNK         0.5089 
     39 O         -74.6689   26.0929  -80.4843 O.2       7 UNK        -0.5125 
     40 CA        -76.7032   26.5780  -79.3299 C.3       6 UNK         0.0408 
     41 CB        -77.7476   25.6099  -79.9074 C.3       6 UNK        -0.1791 
     42 N         -77.0965   26.9501  -77.9684 N.am      6 UNK        -0.4762 
     43 C         -76.5985   27.9932  -77.2893 C.2       6 UNK         0.5007 
     44 O         -75.7496   28.7587  -77.7437 O.2       6 UNK        -0.5032 
     45 CA        -77.1288   28.2098  -75.8573 C.3       5 UNK         0.0783 
     46 C46       -78.4399   29.0409  -75.8486 C.3       11 UNK        -0.0857 
     47 S47       -78.0858   30.8264  -75.7132 S.3       11 UNK        -0.2512 
     48 C48       -78.8590   31.2750  -74.1176 C.3       11 UNK         0.0225 
     49 N         -77.2717   26.9475  -75.1308 N.am      5 UNK        -0.4615 
     50 C         -76.2503   26.1755  -74.7411 C.2       4 UNK         0.5053 
     51 O         -75.0715   26.5065  -74.8479 O.2       4 UNK        -0.5105 
     52 CA        -76.5918   24.7856  -74.1798 C.3       4 UNK         0.0263 
     53 CB        -76.7454   24.8254  -72.6504 C.3       4 UNK        -0.1981 
     54 N         -77.8032   24.2357  -74.7942 N.am      4 UNK        -0.4224 
     55 C         -77.8703   23.7962  -76.0604 C.2       3 UNK         0.4895 
     56 O         -76.8970   23.7280  -76.8095 O.2       3 UNK        -0.5091 
     57 CA        -79.2597   23.4202  -76.6031 C.3       3 UNK         0.0250 
     58 CB        -79.5610   21.9334  -76.3622 C.3       3 UNK        -0.1996 
     59 N         -80.3260   24.2500  -76.0346 N.am      3 UNK        -0.4254 
     60 C         -80.5025   25.5442  -76.3439 C.2       2 UNK         0.5004 
     61 O         -79.8200   26.1417  -77.1755 O.2       2 UNK        -0.5226 
     62 CA        -81.5736   26.3219  -75.5566 C.3       2 UNK         0.0269 
     63 CB        -82.9374   26.2204  -76.2566 C.3       2 UNK        -0.1926 
     64 N         -81.7040   25.8870  -74.1615 N.am      2 UNK        -0.4687 
     65 C         -80.7126   25.9346  -73.2606 C.2       1 UNK         0.5165 
     66 O         -79.5986   26.3927  -73.5128 O.2       1 UNK        -0.5079 
     67 H67       -79.3225   21.6764  -71.2628 H         1 UNK         0.0900 
     68 H68       -80.3246   20.7825  -72.4041 H         1 UNK         0.0900 
     69 H69       -78.8618   21.5984  -72.9653 H         1 UNK         0.0900 
     70 H70       -79.6595   23.8934  -71.0293 H         1 UNK         0.2959 
     71 H71       -82.0547   25.1229  -71.7843 H         1 UNK         0.1079 
     72 H72       -79.4619   26.4114  -70.7931 H         1 UNK         0.0837 
     73 H73       -80.6413   25.6521  -69.7639 H         1 UNK         0.0837 
     74 H74       -80.7058   29.7882  -69.5673 H         1 UNK         0.0685 
     75 H75       -79.7741   28.4287  -68.9951 H         1 UNK         0.0685 
     76 H76       -80.4585   30.4221  -72.0994 H         1 UNK         0.1434 
     77 H77       -76.4186   30.1462  -73.5032 H         1 UNK         0.1329 
     78 H78       -77.6026   28.0535  -69.9578 H         1 UNK         0.1335 
     79 H79       -75.5178   27.4729  -71.0889 H         1 UNK         0.0680 
     80 H80       -75.0466   28.2288  -72.5834 H         1 UNK         0.0680 
     81 H81       -73.7336   31.6325  -71.6290 H         1 UNK         0.1032 
     82 H82       -74.3328   30.5602  -72.8348 H         1 UNK         0.1032 
     83 H83       -72.0489   30.9539  -73.2831 H         1 UNK         0.0461 
     84 H84       -72.3044   31.3526  -70.0216 H         1 UNK         0.3453 
     85 H85       -70.5944   31.5021  -69.6998 H         1 UNK         0.3453 
     86 H86       -72.2690   28.9248  -74.0715 H         1 UNK         0.2984 
     87 H87       -70.7098   26.2279  -73.5164 H         1 UNK         0.0554 
     88 H88       -72.0491   25.0721  -71.7989 H         1 UNK         0.0847 
     89 H89       -72.5192   24.4775  -73.3821 H         1 UNK         0.0847 
     90 H90       -73.5464   25.6298  -72.5306 H         1 UNK         0.0847 
     91 H91       -73.3713   26.7652  -74.7503 H         1 UNK         0.3141 
     92 H92       -73.5567   26.9116  -76.9194 H         1 UNK         0.0743 
     93 H93       -71.5218   29.1041  -77.5803 H         1 UNK         0.0784 
     94 H94       -73.0854   28.9059  -78.3684 H         1 UNK         0.0784 
     95 H95       -73.0099   29.2908  -76.6586 H         1 UNK         0.0784 
     96 H96       -71.0856   26.8610  -78.5639 H         1 UNK         0.3213 
     97 H97       -73.6995   23.7073  -78.9746 H         1 UNK         0.0855 
     98 H98       -73.5474   24.6246  -76.0771 H         1 UNK         0.0814 
     99 H99       -72.4667   23.4200  -76.7620 H         1 UNK         0.0814 
    100 H100      -74.1954   23.1274  -76.7226 H         1 UNK         0.0814 
    101 H101      -75.4904   25.1643  -77.5932 H         1 UNK         0.3105 
    102 H102      -76.7111   27.4837  -79.9400 H         1 UNK         0.0547 
    103 H103      -77.5184   25.3621  -80.9447 H         1 UNK         0.0837 
    104 H104      -77.7803   24.6740  -79.3492 H         1 UNK         0.0837 
    105 H105      -78.7468   26.0455  -79.8911 H         1 UNK         0.0837 
    106 H106      -77.8588   26.4244  -77.5511 H         1 UNK         0.3020 
    107 H107      -76.3514   28.7675  -75.3324 H         1 UNK         0.1245 
    108 H108      -79.0743   28.7459  -75.0115 H         1 UNK         0.0781 
    109 H109      -79.0463   28.8615  -76.7388 H         1 UNK         0.0781 
    110 H110      -79.9410   31.2692  -74.2593 H         1 UNK         0.0836 
    111 H111      -78.5873   32.3029  -73.8747 H         1 UNK         0.0836 
    112 H112      -78.2138   26.6583  -74.8893 H         1 UNK         0.3022 
    113 H113      -75.7588   24.1203  -74.4173 H         1 UNK         0.0747 
    114 H114      -77.0081   23.8458  -72.2513 H         1 UNK         0.0793 
    115 H115      -75.8123   25.1259  -72.1750 H         1 UNK         0.0793 
    116 H116      -77.5068   25.5358  -72.3303 H         1 UNK         0.0793 
    117 H117      -78.6606   24.3355  -74.2705 H         1 UNK         0.3047 
    118 H118      -79.2449   23.5843  -77.6826 H         1 UNK         0.0822 
    119 H119      -80.5203   21.6488  -76.7946 H         1 UNK         0.0807 
    120 H120      -79.5870   21.6878  -75.3016 H         1 UNK         0.0807 
    121 H121      -78.7988   21.3033  -76.8228 H         1 UNK         0.0807 
    122 H122      -80.8998   23.8330  -75.3069 H         1 UNK         0.2946 
    123 H123      -81.2691   27.3710  -75.5485 H         1 UNK         0.1144 
    124 H124      -83.6843   26.8428  -75.7633 H         1 UNK         0.0793 
    125 H125      -83.3093   25.1951  -76.2711 H         1 UNK         0.0793 
    126 H126      -82.8699   26.5578  -77.2920 H         1 UNK         0.0793 
    127 H127      -82.5765   25.4484  -73.9026 H         1 UNK         0.2896 
@<TRIPOS>BOND
     1    1    2 1    
     2    1   67 1    
     3    1   68 1    
     4    1   69 1    
     5    2    3 2    
     6    2    4 am   BACKBONE|DICT|INTERRES
     7    4    5 1    
     8    4   70 1    
     9    5    6 1    
    10    5   65 1    
    11    5   71 1    
    12    6    7 1    
    13    6   72 1    
    14    6   73 1    
    15    7    8 1    
    16    8    9 1    
    17    8   74 1    
    18    8   75 1    
    19    9   10 ar   
    20    9   14 ar   
    21   10   11 ar   
    22   10   76 1    
    23   11   12 ar   
    24   11   48 1    
    25   12   13 ar   
    26   12   77 1    
    27   13   14 ar   
    28   13   15 1    
    29   14   78 1    
    30   15   16 1    
    31   15   79 1    
    32   15   80 1    
    33   16   17 1    
    34   17   18 1    
    35   17   81 1    
    36   17   82 1    
    37   18   19 1    
    38   18   22 1    
    39   18   83 1    
    40   19   20 am   BACKBONE|DICT|INTERRES
    41   19   21 2    
    42   20   84 1    
    43   20   85 1    
    44   22   23 am   BACKBONE|DICT|INTERRES
    45   22   86 1    
    46   23   24 2    
    47   23   25 1    
    48   25   26 1    
    49   25   27 1    
    50   25   87 1    
    51   26   88 1    
    52   26   89 1    
    53   26   90 1    
    54   27   28 am   BACKBONE|DICT|INTERRES
    55   27   91 1    
    56   28   29 2    
    57   28   30 1    
    58   30   31 1    
    59   30   32 1    
    60   30   92 1    
    61   31   93 1    
    62   31   94 1    
    63   31   95 1    
    64   32   33 am   BACKBONE|DICT|INTERRES
    65   32   96 1    
    66   33   34 2    
    67   33   35 1    
    68   35   36 1    
    69   35   37 1    
    70   35   97 1    
    71   36   98 1    
    72   36   99 1    
    73   36  100 1    
    74   37   38 am   BACKBONE|DICT|INTERRES
    75   37  101 1    
    76   38   39 2    
    77   38   40 1    
    78   40   41 1    
    79   40   42 1    
    80   40  102 1    
    81   41  103 1    
    82   41  104 1    
    83   41  105 1    
    84   42   43 am   BACKBONE|DICT|INTERRES
    85   42  106 1    
    86   43   44 2    
    87   43   45 1    
    88   45   46 1    
    89   45   49 1    
    90   45  107 1    
    91   46   47 1    
    92   46  108 1    
    93   46  109 1    
    94   47   48 1    
    95   48  110 1    
    96   48  111 1    
    97   49   50 am   BACKBONE|DICT|INTERRES
    98   49  112 1    
    99   50   51 2    
   100   50   52 1    
   101   52   53 1    
   102   52   54 1    
   103   52  113 1    
   104   53  114 1    
   105   53  115 1    
   106   53  116 1    
   107   54   55 am   BACKBONE|DICT|INTERRES
   108   54  117 1    
   109   55   56 2    
   110   55   57 1    
   111   57   58 1    
   112   57   59 1    
   113   57  118 1    
   114   58  119 1    
   115   58  120 1    
   116   58  121 1    
   117   59   60 am   BACKBONE|DICT|INTERRES
   118   59  122 1    
   119   60   61 2    
   120   60   62 1    
   121   62   63 1    
   122   62   64 1    
   123   62  123 1    
   124   63  124 1    
   125   63  125 1    
   126   63  126 1    
   127   64   65 am   BACKBONE|DICT|INTERRES
   128   64  127 1    
   129   65   66 2    
@<TRIPOS>SUBSTRUCTURE
     1 UNK         1 GROUP             0       ****    0 ROOT    
