@<TRIPOS>MOLECULE
3R135
127   129    1
SMALL
USER_CHARGES


@<TRIPOS>ATOM
      1 CA        -79.5000   20.8713  -71.9216 C.3       0 UNK        -0.1998 
      2 C         -80.1562   22.1646  -71.4617 C.2       0 UNK         0.4909 
      3 O         -80.9132   22.1570  -70.4901 O.2       0 UNK        -0.5240 
      4 N         -79.8656   23.2713  -72.1523 N.am      1 UNK        -0.4739 
      5 CA        -80.4657   24.5885  -71.9392 C.3       1 UNK         0.0864 
      6 C6        -79.4113   25.7018  -72.1868 C.3       11 UNK        -0.0881 
      7 S7        -79.7312   27.1998  -71.1968 S.3       11 UNK        -0.2682 
      8 C8        -79.8555   28.4827  -72.4880 C.3       11 UNK         0.0289 
      9 C9        -78.5322   28.7603  -73.1931 C.ar      11 UNK        -0.0687 
     10 C10       -78.4888   28.8430  -74.5895 C.ar      11 UNK        -0.0823 
     11 C11       -77.2925   29.1537  -75.2446 C.ar      11 UNK        -0.0830 
     12 C12       -76.1325   29.3666  -74.4950 C.ar      11 UNK        -0.1021 
     13 C13       -76.1631   29.2892  -73.1011 C.ar      11 UNK        -0.0753 
     14 C14       -77.3650   28.9900  -72.4553 C.ar      11 UNK        -0.0933 
     15 C15       -74.9021   29.5604  -72.2988 C.3       11 UNK         0.0166 
     16 S16       -74.7244   31.3403  -71.9750 S.3       11 UNK        -0.2615 
     17 C17       -72.9557   31.4585  -71.5420 C.3       11 UNK        -0.0865 
     18 CA        -72.0972   31.9429  -72.7421 C.3       10 UNK         0.0862 
     19 C         -70.6609   32.3511  -72.2969 C.2       10 UNK         0.5551 
     20 N         -69.5931   31.8391  -72.8979 N.am      10 UNK        -0.7319 
     21 O         -70.5110   33.1645  -71.3883 O.2       10 UNK        -0.5018 
     22 N         -72.1268   30.9704  -73.8461 N.am      10 UNK        -0.4509 
     23 C         -72.0599   31.2709  -75.1481 C.2       10 UNK         0.4899 
     24 O         -72.0403   32.4225  -75.5858 O.2       10 UNK        -0.4839 
     25 CA        -71.9950   30.0716  -76.1193 C.3       9 UNK         0.0222 
     26 CB        -71.4253   30.4560  -77.5007 C.3       9 UNK        -0.1966 
     27 N         -71.2801   28.9045  -75.5791 N.am      9 UNK        -0.4218 
     28 C         -70.0164   28.8719  -75.1182 C.2       9 UNK         0.5020 
     29 O         -69.2876   29.8627  -75.0550 O.2       9 UNK        -0.5274 
     30 CA        -69.4708   27.5284  -74.5959 C.3       8 UNK         0.0270 
     31 CB        -69.4852   27.5147  -73.0578 C.3       8 UNK        -0.1976 
     32 N         -70.2017   26.3602  -75.0889 N.am      8 UNK        -0.4313 
     33 C         -70.2077   25.9325  -76.3587 C.2       8 UNK         0.5041 
     34 O         -69.5006   26.4130  -77.2452 O.2       8 UNK        -0.5577 
     35 CA        -71.1827   24.7916  -76.7093 C.3       7 UNK         0.0284 
     36 CB        -70.4263   23.4577  -76.8238 C.3       7 UNK        -0.1958 
     37 N         -72.3102   24.6270  -75.7796 N.am      7 UNK        -0.4454 
     38 C         -73.2387   25.5537  -75.5053 C.2       7 UNK         0.5089 
     39 O         -73.2037   26.7119  -75.9269 O.2       7 UNK        -0.5125 
     40 CA        -74.3595   25.1320  -74.5434 C.3       6 UNK         0.0408 
     41 CB        -74.1123   25.7124  -73.1422 C.3       6 UNK        -0.1791 
     42 N         -75.6626   25.5841  -75.0260 N.am      6 UNK        -0.4762 
     43 C         -76.3108   25.0517  -76.0710 C.2       6 UNK         0.5007 
     44 O         -75.8918   24.0934  -76.7265 O.2       6 UNK        -0.5032 
     45 CA        -77.6603   25.7036  -76.4455 C.3       5 UNK         0.0783 
     46 C46       -77.5547   26.6487  -77.6701 C.3       11 UNK        -0.0857 
     47 S47       -76.3061   27.9742  -77.5482 S.3       11 UNK        -0.2512 
     48 C48       -77.2497   29.3119  -76.7571 C.3       11 UNK         0.0225 
     49 N         -78.6982   24.7003  -76.6931 N.am      5 UNK        -0.4615 
     50 C         -79.1042   23.7363  -75.8593 C.2       4 UNK         0.5053 
     51 O         -78.6666   23.5716  -74.7192 O.2       4 UNK        -0.5105 
     52 CA        -80.2345   22.8430  -76.3938 C.3       4 UNK         0.0263 
     53 CB        -80.4447   21.5697  -75.5536 C.3       4 UNK        -0.1981 
     54 N         -81.4813   23.6087  -76.4450 N.am      4 UNK        -0.4224 
     55 C         -81.8523   24.3923  -77.4691 C.2       3 UNK         0.4895 
     56 O         -81.1873   24.5151  -78.4992 O.2       3 UNK        -0.5091 
     57 CA        -83.1693   25.1808  -77.3372 C.3       3 UNK         0.0250 
     58 CB        -84.3149   24.4285  -78.0336 C.3       3 UNK        -0.1996 
     59 N         -83.5509   25.4609  -75.9513 N.am      3 UNK        -0.4254 
     60 C         -82.9322   26.3409  -75.1524 C.2       2 UNK         0.5004 
     61 O         -81.9990   27.0587  -75.5161 O.2       2 UNK        -0.5226 
     62 CA        -83.3946   26.4107  -73.6822 C.3       2 UNK         0.0269 
     63 CB        -84.7227   25.6744  -73.3899 C.3       2 UNK        -0.1926 
     64 N         -82.3305   25.9405  -72.7866 N.am      2 UNK        -0.4687 
     65 C         -81.7123   24.7517  -72.8376 C.2       1 UNK         0.5165 
     66 O         -82.0784   23.8331  -73.5774 O.2       1 UNK        -0.5079 
     67 H67       -78.9398   20.4211  -71.1027 H         1 UNK         0.0900 
     68 H68       -80.2593   20.1614  -72.2485 H         1 UNK         0.0900 
     69 H69       -78.8124   21.0388  -72.7509 H         1 UNK         0.0900 
     70 H70       -79.2987   23.2061  -72.9955 H         1 UNK         0.2959 
     71 H71       -80.8065   24.6501  -70.9031 H         1 UNK         0.1079 
     72 H72       -78.4201   25.3526  -71.8919 H         1 UNK         0.0837 
     73 H73       -79.3255   25.9446  -73.2482 H         1 UNK         0.0837 
     74 H74       -80.6236   28.1949  -73.2071 H         1 UNK         0.0685 
     75 H75       -80.1997   29.4086  -72.0254 H         1 UNK         0.0685 
     76 H76       -79.3920   28.6869  -75.1651 H         1 UNK         0.1434 
     77 H77       -75.2077   29.6138  -74.9984 H         1 UNK         0.1329 
     78 H78       -77.3951   28.9495  -71.3751 H         1 UNK         0.1335 
     79 H79       -74.0354   29.1946  -72.8493 H         1 UNK         0.0680 
     80 H80       -74.9222   29.0170  -71.3528 H         1 UNK         0.0680 
     81 H81       -72.5930   30.5027  -71.1598 H         1 UNK         0.1032 
     82 H82       -72.8811   32.1605  -70.7091 H         1 UNK         0.1032 
     83 H83       -72.5497   32.8697  -73.1004 H         1 UNK         0.0461 
     84 H84       -68.6777   32.1273  -72.5917 H         1 UNK         0.3453 
     85 H85       -69.6778   31.1882  -73.6720 H         1 UNK         0.3453 
     86 H86       -72.1052   29.9981  -73.5819 H         1 UNK         0.2984 
     87 H87       -73.0262   29.7481  -76.2688 H         1 UNK         0.0554 
     88 H88       -72.0297   31.2307  -77.9741 H         1 UNK         0.0847 
     89 H89       -71.4129   29.6001  -78.1755 H         1 UNK         0.0847 
     90 H90       -70.4066   30.8379  -77.4245 H         1 UNK         0.0847 
     91 H91       -71.8113   28.0368  -75.6000 H         1 UNK         0.3141 
     92 H92       -68.4349   27.4457  -74.9317 H         1 UNK         0.0743 
     93 H93       -70.4993   27.5761  -72.6606 H         1 UNK         0.0784 
     94 H94       -69.0238   26.6086  -72.6644 H         1 UNK         0.0784 
     95 H95       -68.9261   28.3603  -72.6540 H         1 UNK         0.0784 
     96 H96       -70.8001   25.8843  -74.4303 H         1 UNK         0.3213 
     97 H97       -71.6054   25.0293  -77.6879 H         1 UNK         0.0855 
     98 H98       -70.0062   23.1479  -75.8660 H         1 UNK         0.0814 
     99 H99       -69.5993   23.5368  -77.5311 H         1 UNK         0.0814 
    100 H100      -71.0774   22.6596  -77.1810 H         1 UNK         0.0814 
    101 H101      -72.4169   23.7098  -75.3691 H         1 UNK         0.3105 
    102 H102      -74.3806   24.0427  -74.4670 H         1 UNK         0.0547 
    103 H103      -74.8968   25.4170  -72.4452 H         1 UNK         0.0837 
    104 H104      -74.0726   26.8012  -73.1594 H         1 UNK         0.0837 
    105 H105      -73.1659   25.3579  -72.7321 H         1 UNK         0.0837 
    106 H106      -76.0379   26.4137  -74.5885 H         1 UNK         0.3020 
    107 H107      -78.0003   26.2853  -75.5879 H         1 UNK         0.1245 
    108 H108      -78.5261   27.1029  -77.8724 H         1 UNK         0.0781 
    109 H109      -77.3137   26.0668  -78.5619 H         1 UNK         0.0781 
    110 H110      -78.2539   29.3667  -77.1803 H         1 UNK         0.0836 
    111 H111      -76.7709   30.2623  -76.9973 H         1 UNK         0.0836 
    112 H112      -79.1602   24.7531  -77.5922 H         1 UNK         0.3022 
    113 H113      -79.9563   22.5232  -77.4005 H         1 UNK         0.0747 
    114 H114      -81.1982   20.9225  -76.0023 H         1 UNK         0.0793 
    115 H115      -79.5220   20.9925  -75.4829 H         1 UNK         0.0793 
    116 H116      -80.7662   21.7966  -74.5383 H         1 UNK         0.0793 
    117 H117      -82.0185   23.6331  -75.5833 H         1 UNK         0.3047 
    118 H118      -83.0283   26.1354  -77.8492 H         1 UNK         0.0822 
    119 H119      -85.2373   25.0095  -78.0212 H         1 UNK         0.0807 
    120 H120      -84.5154   23.4673  -77.5586 H         1 UNK         0.0807 
    121 H121      -84.0730   24.2309  -79.0790 H         1 UNK         0.0807 
    122 H122      -84.2908   24.8969  -75.5586 H         1 UNK         0.2946 
    123 H123      -83.5483   27.4692  -73.4651 H         1 UNK         0.1144 
    124 H124      -84.6496   24.5977  -73.5458 H         1 UNK         0.0793 
    125 H125      -85.5288   26.0495  -74.0220 H         1 UNK         0.0793 
    126 H126      -85.0325   25.8317  -72.3567 H         1 UNK         0.0793 
    127 H127      -81.9431   26.6369  -72.1633 H         1 UNK         0.2896 
@<TRIPOS>BOND
     1    1    2 1    
     2    1   67 1    
     3    1   68 1    
     4    1   69 1    
     5    2    3 2    
     6    2    4 am   BACKBONE|DICT|INTERRES
     7    4    5 1    
     8    4   70 1    
     9    5    6 1    
    10    5   65 1    
    11    5   71 1    
    12    6    7 1    
    13    6   72 1    
    14    6   73 1    
    15    7    8 1    
    16    8    9 1    
    17    8   74 1    
    18    8   75 1    
    19    9   10 ar   
    20    9   14 ar   
    21   10   11 ar   
    22   10   76 1    
    23   11   12 ar   
    24   11   48 1    
    25   12   13 ar   
    26   12   77 1    
    27   13   14 ar   
    28   13   15 1    
    29   14   78 1    
    30   15   16 1    
    31   15   79 1    
    32   15   80 1    
    33   16   17 1    
    34   17   18 1    
    35   17   81 1    
    36   17   82 1    
    37   18   19 1    
    38   18   22 1    
    39   18   83 1    
    40   19   20 am   BACKBONE|DICT|INTERRES
    41   19   21 2    
    42   20   84 1    
    43   20   85 1    
    44   22   23 am   BACKBONE|DICT|INTERRES
    45   22   86 1    
    46   23   24 2    
    47   23   25 1    
    48   25   26 1    
    49   25   27 1    
    50   25   87 1    
    51   26   88 1    
    52   26   89 1    
    53   26   90 1    
    54   27   28 am   BACKBONE|DICT|INTERRES
    55   27   91 1    
    56   28   29 2    
    57   28   30 1    
    58   30   31 1    
    59   30   32 1    
    60   30   92 1    
    61   31   93 1    
    62   31   94 1    
    63   31   95 1    
    64   32   33 am   BACKBONE|DICT|INTERRES
    65   32   96 1    
    66   33   34 2    
    67   33   35 1    
    68   35   36 1    
    69   35   37 1    
    70   35   97 1    
    71   36   98 1    
    72   36   99 1    
    73   36  100 1    
    74   37   38 am   BACKBONE|DICT|INTERRES
    75   37  101 1    
    76   38   39 2    
    77   38   40 1    
    78   40   41 1    
    79   40   42 1    
    80   40  102 1    
    81   41  103 1    
    82   41  104 1    
    83   41  105 1    
    84   42   43 am   BACKBONE|DICT|INTERRES
    85   42  106 1    
    86   43   44 2    
    87   43   45 1    
    88   45   46 1    
    89   45   49 1    
    90   45  107 1    
    91   46   47 1    
    92   46  108 1    
    93   46  109 1    
    94   47   48 1    
    95   48  110 1    
    96   48  111 1    
    97   49   50 am   BACKBONE|DICT|INTERRES
    98   49  112 1    
    99   50   51 2    
   100   50   52 1    
   101   52   53 1    
   102   52   54 1    
   103   52  113 1    
   104   53  114 1    
   105   53  115 1    
   106   53  116 1    
   107   54   55 am   BACKBONE|DICT|INTERRES
   108   54  117 1    
   109   55   56 2    
   110   55   57 1    
   111   57   58 1    
   112   57   59 1    
   113   57  118 1    
   114   58  119 1    
   115   58  120 1    
   116   58  121 1    
   117   59   60 am   BACKBONE|DICT|INTERRES
   118   59  122 1    
   119   60   61 2    
   120   60   62 1    
   121   62   63 1    
   122   62   64 1    
   123   62  123 1    
   124   63  124 1    
   125   63  125 1    
   126   63  126 1    
   127   64   65 am   BACKBONE|DICT|INTERRES
   128   64  127 1    
   129   65   66 2    
@<TRIPOS>SUBSTRUCTURE
     1 UNK         1 GROUP             0       ****    0 ROOT    
