@<TRIPOS>MOLECULE
3R135
127   129    1
SMALL
USER_CHARGES


@<TRIPOS>ATOM
      1 CA        -78.3099   29.8370  -78.4613 C.3       0 UNK        -0.1998 
      2 C         -79.2744   29.4571  -77.3477 C.2       0 UNK         0.4909 
      3 O         -80.4745   29.7008  -77.4710 O.2       0 UNK        -0.5240 
      4 N         -78.7499   28.8492  -76.2746 N.am      1 UNK        -0.4739 
      5 CA        -79.4664   28.3944  -75.0689 C.3       1 UNK         0.0864 
      6 C6        -80.2285   29.5213  -74.3153 C.3       11 UNK        -0.0881 
      7 S7        -79.1161   30.8263  -73.6885 S.3       11 UNK        -0.2682 
      8 C8        -79.2870   30.6309  -71.8840 C.3       11 UNK         0.0289 
      9 C9        -78.3221   29.5984  -71.3138 C.ar      11 UNK        -0.0687 
     10 C10       -78.5954   28.2308  -71.4151 C.ar      11 UNK        -0.0823 
     11 C11       -77.7275   27.2883  -70.8554 C.ar      11 UNK        -0.0830 
     12 C12       -76.5840   27.7298  -70.1796 C.ar      11 UNK        -0.1021 
     13 C13       -76.2908   29.0929  -70.0669 C.ar      11 UNK        -0.0753 
     14 C14       -77.1697   30.0204  -70.6433 C.ar      11 UNK        -0.0933 
     15 C15       -75.0487   29.5062  -69.2704 C.3       11 UNK         0.0166 
     16 S16       -74.5066   31.2403  -69.4947 S.3       11 UNK        -0.2615 
     17 C17       -72.7633   31.0529  -70.0077 C.3       11 UNK        -0.0865 
     18 CA        -72.5865   31.1004  -71.5485 C.3       10 UNK         0.0862 
     19 C         -71.0812   31.1881  -71.9443 C.2       10 UNK         0.5551 
     20 N         -70.5356   30.2793  -72.7448 N.am      10 UNK        -0.7319 
     21 O         -70.3916   32.1110  -71.5173 O.2       10 UNK        -0.5018 
     22 N         -73.3239   30.0094  -72.2015 N.am      10 UNK        -0.4509 
     23 C         -73.7386   30.0141  -73.4706 C.2       10 UNK         0.4899 
     24 O         -73.6185   30.9678  -74.2424 O.2       10 UNK        -0.4839 
     25 CA        -74.3913   28.7109  -73.9577 C.3       9 UNK         0.0222 
     26 CB        -75.8807   28.9348  -74.2451 C.3       9 UNK        -0.1966 
     27 N         -73.7441   28.1728  -75.1552 N.am      9 UNK        -0.4218 
     28 C         -72.4377   27.8881  -75.2798 C.2       9 UNK         0.5020 
     29 O         -71.6259   28.0098  -74.3593 O.2       9 UNK        -0.5274 
     30 CA        -71.9373   27.3750  -76.6448 C.3       8 UNK         0.0270 
     31 CB        -71.2120   26.0252  -76.5000 C.3       8 UNK        -0.1976 
     32 N         -73.0082   27.2374  -77.6355 N.am      8 UNK        -0.4313 
     33 C         -73.4506   28.2220  -78.4308 C.2       8 UNK         0.5041 
     34 O         -72.9667   29.3540  -78.4429 O.2       8 UNK        -0.5577 
     35 CA        -74.6318   27.9069  -79.3705 C.3       7 UNK         0.0284 
     36 CB        -74.1470   27.7949  -80.8254 C.3       7 UNK        -0.1958 
     37 N         -75.3677   26.6881  -79.0185 N.am      7 UNK        -0.4454 
     38 C         -76.1411   26.5461  -77.9347 C.2       7 UNK         0.5089 
     39 O         -76.3425   27.4538  -77.1250 O.2       7 UNK        -0.5125 
     40 CA        -76.7875   25.1641  -77.6981 C.3       6 UNK         0.0408 
     41 CB        -76.2265   24.0372  -78.5936 C.3       6 UNK        -0.1791 
     42 N         -76.7275   24.7553  -76.2911 N.am      6 UNK        -0.4762 
     43 C         -75.6311   24.6739  -75.5213 C.2       6 UNK         0.5007 
     44 O         -74.4934   24.9453  -75.9070 O.2       6 UNK        -0.5032 
     45 CA        -75.8495   24.1754  -74.0836 C.3       5 UNK         0.0783 
     46 C46       -76.4910   25.2775  -73.2066 C.3       11 UNK        -0.0857 
     47 S47       -76.6692   24.7617  -71.4697 S.3       11 UNK        -0.2512 
     48 C48       -78.0668   25.8011  -70.9281 C.3       11 UNK         0.0225 
     49 N         -76.6217   22.9290  -74.0842 N.am      5 UNK        -0.4615 
     50 C         -76.1084   21.7242  -74.3704 C.2       4 UNK         0.5053 
     51 O         -74.9276   21.5423  -74.6686 O.2       4 UNK        -0.5105 
     52 CA        -77.0442   20.5034  -74.2825 C.3       4 UNK         0.0263 
     53 CB        -76.7641   19.7087  -72.9960 C.3       4 UNK        -0.1981 
     54 N         -78.4643   20.8569  -74.3201 N.am      4 UNK        -0.4224 
     55 C         -79.1408   21.1697  -75.4324 C.2       3 UNK         0.4895 
     56 O         -78.6542   21.1209  -76.5640 O.2       3 UNK        -0.5091 
     57 CA        -80.6062   21.6259  -75.2638 C.3       3 UNK         0.0250 
     58 CB        -81.0585   21.7877  -73.7929 C.3       3 UNK        -0.1996 
     59 N         -80.8837   22.8573  -76.0138 N.am      3 UNK        -0.4254 
     60 C         -80.2318   24.0243  -75.9033 C.2       2 UNK         0.5004 
     61 O         -79.2766   24.2050  -75.1406 O.2       2 UNK        -0.5226 
     62 CA        -80.6930   25.1630  -76.8374 C.3       2 UNK         0.0269 
     63 CB        -82.2301   25.2532  -76.9735 C.3       2 UNK        -0.1926 
     64 N         -80.1216   26.4604  -76.4497 N.am      2 UNK        -0.4687 
     65 C         -80.3441   27.1461  -75.3165 C.2       1 UNK         0.5165 
     66 O         -81.1693   26.8103  -74.4648 O.2       1 UNK        -0.5079 
     67 H67       -77.2788   29.8592  -78.1088 H         1 UNK         0.0900 
     68 H68       -78.5512   30.8264  -78.8490 H         1 UNK         0.0900 
     69 H69       -78.3780   29.1216  -79.2802 H         1 UNK         0.0900 
     70 H70       -77.7645   28.6037  -76.3063 H         1 UNK         0.2959 
     71 H71       -78.6936   28.0321  -74.3915 H         1 UNK         0.1079 
     72 H72       -80.9749   29.9855  -74.9604 H         1 UNK         0.0837 
     73 H73       -80.7949   29.1160  -73.4763 H         1 UNK         0.0837 
     74 H74       -80.3136   30.3715  -71.6222 H         1 UNK         0.0685 
     75 H75       -79.1052   31.6025  -71.4223 H         1 UNK         0.0685 
     76 H76       -79.4959   27.9004  -71.9135 H         1 UNK         0.1434 
     77 H77       -75.9248   27.0038  -69.7229 H         1 UNK         0.1329 
     78 H78       -76.9791   31.0802  -70.5578 H         1 UNK         0.1335 
     79 H79       -74.2304   28.8297  -69.5189 H         1 UNK         0.0680 
     80 H80       -75.2557   29.3530  -68.2105 H         1 UNK         0.0680 
     81 H81       -72.2101   31.8702  -69.5406 H         1 UNK         0.1032 
     82 H82       -72.3387   30.1377  -69.5919 H         1 UNK         0.1032 
     83 H83       -73.0271   32.0385  -71.8921 H         1 UNK         0.0461 
     84 H84       -71.0837   29.5219  -73.1388 H         1 UNK         0.3453 
     85 H85       -69.5609   30.3625  -72.9848 H         1 UNK         0.3453 
     86 H86       -73.4548   29.1747  -71.6513 H         1 UNK         0.2984 
     87 H87       -74.3020   27.9555  -73.1748 H         1 UNK         0.0554 
     88 H88       -76.3953   29.3023  -73.3582 H         1 UNK         0.0847 
     89 H89       -76.3676   28.0091  -74.5437 H         1 UNK         0.0847 
     90 H90       -76.0345   29.6683  -75.0378 H         1 UNK         0.0847 
     91 H91       -74.3388   28.0325  -75.9609 H         1 UNK         0.3141 
     92 H92       -71.2098   28.1042  -77.0077 H         1 UNK         0.0743 
     93 H93       -70.3600   26.1092  -75.8240 H         1 UNK         0.0784 
     94 H94       -71.8682   25.2526  -76.0989 H         1 UNK         0.0784 
     95 H95       -70.8279   25.6759  -77.4585 H         1 UNK         0.0784 
     96 H96       -73.4910   26.3481  -77.6470 H         1 UNK         0.3213 
     97 H97       -75.3242   28.7489  -79.3068 H         1 UNK         0.0855 
     98 H98       -73.4561   26.9614  -80.9585 H         1 UNK         0.0814 
     99 H99       -73.6252   28.7020  -81.1340 H         1 UNK         0.0814 
    100 H100      -74.9812   27.6554  -81.5133 H         1 UNK         0.0814 
    101 H101      -75.2508   25.8954  -79.6331 H         1 UNK         0.3105 
    102 H102      -77.8431   25.2809  -77.9397 H         1 UNK         0.0547 
    103 H103      -75.1547   23.8939  -78.4492 H         1 UNK         0.0837 
    104 H104      -76.7140   23.0875  -78.3710 H         1 UNK         0.0837 
    105 H105      -76.4020   24.2376  -79.6511 H         1 UNK         0.0837 
    106 H106      -77.6213   24.5279  -75.8578 H         1 UNK         0.3020 
    107 H107      -74.8606   23.9616  -73.6703 H         1 UNK         0.1245 
    108 H108      -77.4671   25.5695  -73.5985 H         1 UNK         0.0781 
    109 H109      -75.8715   26.1736  -73.2125 H         1 UNK         0.0781 
    110 H110      -78.9152   25.6242  -71.5916 H         1 UNK         0.0836 
    111 H111      -78.3807   25.4709  -69.9371 H         1 UNK         0.0836 
    112 H112      -77.6112   23.0155  -73.8986 H         1 UNK         0.3022 
    113 H113      -76.8208   19.8587  -75.1355 H         1 UNK         0.0747 
    114 H114      -75.7201   19.3950  -72.9503 H         1 UNK         0.0793 
    115 H115      -77.3734   18.8060  -72.9457 H         1 UNK         0.0793 
    116 H116      -76.9648   20.3016  -72.1026 H         1 UNK         0.0793 
    117 H117      -78.9412   20.9225  -73.4324 H         1 UNK         0.3047 
    118 H118      -81.2183   20.8434  -75.7148 H         1 UNK         0.0822 
    119 H119      -80.9838   20.8476  -73.2449 H         1 UNK         0.0807 
    120 H120      -82.1024   22.0973  -73.7402 H         1 UNK         0.0807 
    121 H121      -80.4709   22.5374  -73.2609 H         1 UNK         0.0807 
    122 H122      -81.6214   22.7887  -76.7005 H         1 UNK         0.2946 
    123 H123      -80.2861   24.9326  -77.8230 H         1 UNK         0.1144 
    124 H124      -82.6370   24.3868  -77.4955 H         1 UNK         0.0793 
    125 H125      -82.5242   26.1326  -77.5468 H         1 UNK         0.0793 
    126 H126      -82.7234   25.3099  -76.0025 H         1 UNK         0.0793 
    127 H127      -79.4117   26.8305  -77.0645 H         1 UNK         0.2896 
@<TRIPOS>BOND
     1    1    2 1    
     2    1   67 1    
     3    1   68 1    
     4    1   69 1    
     5    2    3 2    
     6    2    4 am   BACKBONE|DICT|INTERRES
     7    4    5 1    
     8    4   70 1    
     9    5    6 1    
    10    5   65 1    
    11    5   71 1    
    12    6    7 1    
    13    6   72 1    
    14    6   73 1    
    15    7    8 1    
    16    8    9 1    
    17    8   74 1    
    18    8   75 1    
    19    9   10 ar   
    20    9   14 ar   
    21   10   11 ar   
    22   10   76 1    
    23   11   12 ar   
    24   11   48 1    
    25   12   13 ar   
    26   12   77 1    
    27   13   14 ar   
    28   13   15 1    
    29   14   78 1    
    30   15   16 1    
    31   15   79 1    
    32   15   80 1    
    33   16   17 1    
    34   17   18 1    
    35   17   81 1    
    36   17   82 1    
    37   18   19 1    
    38   18   22 1    
    39   18   83 1    
    40   19   20 am   BACKBONE|DICT|INTERRES
    41   19   21 2    
    42   20   84 1    
    43   20   85 1    
    44   22   23 am   BACKBONE|DICT|INTERRES
    45   22   86 1    
    46   23   24 2    
    47   23   25 1    
    48   25   26 1    
    49   25   27 1    
    50   25   87 1    
    51   26   88 1    
    52   26   89 1    
    53   26   90 1    
    54   27   28 am   BACKBONE|DICT|INTERRES
    55   27   91 1    
    56   28   29 2    
    57   28   30 1    
    58   30   31 1    
    59   30   32 1    
    60   30   92 1    
    61   31   93 1    
    62   31   94 1    
    63   31   95 1    
    64   32   33 am   BACKBONE|DICT|INTERRES
    65   32   96 1    
    66   33   34 2    
    67   33   35 1    
    68   35   36 1    
    69   35   37 1    
    70   35   97 1    
    71   36   98 1    
    72   36   99 1    
    73   36  100 1    
    74   37   38 am   BACKBONE|DICT|INTERRES
    75   37  101 1    
    76   38   39 2    
    77   38   40 1    
    78   40   41 1    
    79   40   42 1    
    80   40  102 1    
    81   41  103 1    
    82   41  104 1    
    83   41  105 1    
    84   42   43 am   BACKBONE|DICT|INTERRES
    85   42  106 1    
    86   43   44 2    
    87   43   45 1    
    88   45   46 1    
    89   45   49 1    
    90   45  107 1    
    91   46   47 1    
    92   46  108 1    
    93   46  109 1    
    94   47   48 1    
    95   48  110 1    
    96   48  111 1    
    97   49   50 am   BACKBONE|DICT|INTERRES
    98   49  112 1    
    99   50   51 2    
   100   50   52 1    
   101   52   53 1    
   102   52   54 1    
   103   52  113 1    
   104   53  114 1    
   105   53  115 1    
   106   53  116 1    
   107   54   55 am   BACKBONE|DICT|INTERRES
   108   54  117 1    
   109   55   56 2    
   110   55   57 1    
   111   57   58 1    
   112   57   59 1    
   113   57  118 1    
   114   58  119 1    
   115   58  120 1    
   116   58  121 1    
   117   59   60 am   BACKBONE|DICT|INTERRES
   118   59  122 1    
   119   60   61 2    
   120   60   62 1    
   121   62   63 1    
   122   62   64 1    
   123   62  123 1    
   124   63  124 1    
   125   63  125 1    
   126   63  126 1    
   127   64   65 am   BACKBONE|DICT|INTERRES
   128   64  127 1    
   129   65   66 2    
@<TRIPOS>SUBSTRUCTURE
     1 UNK         1 GROUP             0       ****    0 ROOT    
