@<TRIPOS>MOLECULE
3R135
127   129    1
SMALL
USER_CHARGES


@<TRIPOS>ATOM
      1 CA        -85.4423   26.4651  -73.8152 C.3       0 UNK        -0.1998 
      2 C         -84.5615   26.1156  -72.6182 C.2       0 UNK         0.4909 
      3 O         -85.0304   25.4411  -71.7034 O.2       0 UNK        -0.5240 
      4 N         -83.2920   26.5468  -72.5625 N.am      1 UNK        -0.4739 
      5 CA        -82.5625   27.3118  -73.5858 C.3       1 UNK         0.0864 
      6 C6        -81.2627   27.9205  -72.9973 C.3       11 UNK        -0.0881 
      7 S7        -80.7871   29.4872  -73.8034 S.3       11 UNK        -0.2682 
      8 C8        -80.0017   30.3901  -72.4323 C.3       11 UNK         0.0289 
      9 C9        -78.6084   29.8639  -72.1098 C.ar      11 UNK        -0.0687 
     10 C10       -78.4473   28.7618  -71.2646 C.ar      11 UNK        -0.0823 
     11 C11       -77.1714   28.3131  -70.9114 C.ar      11 UNK        -0.0830 
     12 C12       -76.0473   28.9852  -71.4034 C.ar      11 UNK        -0.1021 
     13 C13       -76.1935   30.0927  -72.2444 C.ar      11 UNK        -0.0753 
     14 C14       -77.4760   30.5176  -72.6063 C.ar      11 UNK        -0.0933 
     15 C15       -74.9719   30.8781  -72.6982 C.3       11 UNK         0.0166 
     16 S16       -74.2394   30.2170  -74.2266 S.3       11 UNK        -0.2615 
     17 C17       -72.9644   31.4895  -74.5465 C.3       11 UNK        -0.0865 
     18 CA        -71.5081   31.0440  -74.2509 C.3       10 UNK         0.0862 
     19 C         -71.2634   30.7366  -72.7424 C.2       10 UNK         0.5551 
     20 N         -70.8862   29.5226  -72.3567 N.am      10 UNK        -0.7319 
     21 O         -71.4060   31.6273  -71.9082 O.2       10 UNK        -0.5018 
     22 N         -71.0591   29.9952  -75.1781 N.am      10 UNK        -0.4509 
     23 C         -69.7746   29.7380  -75.4608 C.2       10 UNK         0.4899 
     24 O         -68.8411   30.4383  -75.0647 O.2       10 UNK        -0.4839 
     25 CA        -69.4757   28.4986  -76.3319 C.3       9 UNK         0.0222 
     26 CB        -68.0795   27.9073  -76.0434 C.3       9 UNK        -0.1966 
     27 N         -70.4930   27.4405  -76.2630 N.am      9 UNK        -0.4218 
     28 C         -70.9437   26.7958  -75.1773 C.2       9 UNK         0.5020 
     29 O         -70.5910   27.0622  -74.0262 O.2       9 UNK        -0.5274 
     30 CA        -71.9804   25.6847  -75.4363 C.3       8 UNK         0.0270 
     31 CB        -72.4450   24.9942  -74.1408 C.3       8 UNK        -0.1976 
     32 N         -73.1477   26.1783  -76.1798 N.am      8 UNK        -0.4313 
     33 C         -73.1769   26.3800  -77.5078 C.2       8 UNK         0.5041 
     34 O         -72.1880   26.2104  -78.2242 O.2       8 UNK        -0.5577 
     35 CA        -74.4824   26.8689  -78.1597 C.3       7 UNK         0.0284 
     36 CB        -74.8448   26.0218  -79.3933 C.3       7 UNK        -0.1958 
     37 N         -75.6040   26.8574  -77.2197 N.am      7 UNK        -0.4454 
     38 C         -76.2199   27.9554  -76.7607 C.2       7 UNK         0.5089 
     39 O         -75.9670   29.0942  -77.1549 O.2       7 UNK        -0.5125 
     40 CA        -77.3097   27.7695  -75.6887 C.3       6 UNK         0.0408 
     41 CB        -78.6999   27.8704  -76.3335 C.3       6 UNK        -0.1791 
     42 N         -77.2223   26.5261  -74.9125 N.am      6 UNK        -0.4762 
     43 C         -76.1984   26.1940  -74.1104 C.2       6 UNK         0.5007 
     44 O         -75.1473   26.8297  -74.0647 O.2       6 UNK        -0.5032 
     45 CA        -76.3342   24.9148  -73.2653 C.3       5 UNK         0.0783 
     46 C46       -77.1392   25.1473  -71.9621 C.3       11 UNK        -0.0857 
     47 S47       -76.0602   25.7587  -70.6239 S.3       11 UNK        -0.2512 
     48 C48       -77.0182   27.1481  -69.9409 C.3       11 UNK         0.0225 
     49 N         -76.8899   23.8301  -74.0746 N.am      5 UNK        -0.4615 
     50 C         -76.2461   22.6870  -74.3501 C.2       4 UNK         0.5053 
     51 O         -75.1812   22.3561  -73.8284 O.2       4 UNK        -0.5105 
     52 CA        -76.8714   21.7484  -75.4019 C.3       4 UNK         0.0263 
     53 CB        -77.6478   20.6155  -74.7113 C.3       4 UNK        -0.1981 
     54 N         -77.7547   22.4137  -76.3637 N.am      4 UNK        -0.4224 
     55 C         -77.4231   23.4448  -77.1546 C.2       3 UNK         0.4895 
     56 O         -76.2957   23.9340  -77.2129 O.2       3 UNK        -0.5091 
     57 CA        -78.5598   24.0919  -77.9644 C.3       3 UNK         0.0250 
     58 CB        -78.6090   23.4980  -79.3806 C.3       3 UNK        -0.1996 
     59 N         -79.8928   23.9995  -77.3479 N.am      3 UNK        -0.4254 
     60 C         -80.2211   24.3899  -76.1066 C.2       2 UNK         0.5004 
     61 O         -79.4101   24.8177  -75.2790 O.2       2 UNK        -0.5226 
     62 CA        -81.6919   24.2069  -75.7019 C.3       2 UNK         0.0269 
     63 CB        -81.9264   22.7776  -75.1864 C.3       2 UNK        -0.1926 
     64 N         -82.0765   25.1538  -74.6549 N.am      2 UNK        -0.4687 
     65 C         -82.2606   26.4681  -74.8441 C.2       1 UNK         0.5165 
     66 O         -82.2335   27.0066  -75.9511 O.2       1 UNK        -0.5079 
     67 H67       -85.4157   27.5314  -74.0350 H         1 UNK         0.0900 
     68 H68       -86.4800   26.2024  -73.6105 H         1 UNK         0.0900 
     69 H69       -85.1315   25.9119  -74.7008 H         1 UNK         0.0900 
     70 H70       -82.7517   26.3030  -71.7446 H         1 UNK         0.2959 
     71 H71       -83.2081   28.1355  -73.8961 H         1 UNK         0.1079 
     72 H72       -81.4148   28.1362  -71.9389 H         1 UNK         0.0837 
     73 H73       -80.4249   27.2205  -73.0411 H         1 UNK         0.0837 
     74 H74       -79.9444   31.4449  -72.7054 H         1 UNK         0.0685 
     75 H75       -80.6362   30.3474  -71.5458 H         1 UNK         0.0685 
     76 H76       -79.3185   28.2674  -70.8595 H         1 UNK         0.1434 
     77 H77       -75.0574   28.6560  -71.1176 H         1 UNK         0.1329 
     78 H78       -77.5926   31.3802  -73.2480 H         1 UNK         0.1335 
     79 H79       -75.2468   31.9227  -72.8528 H         1 UNK         0.0680 
     80 H80       -74.2189   30.8749  -71.9087 H         1 UNK         0.0680 
     81 H81       -73.1956   32.3949  -73.9825 H         1 UNK         0.1032 
     82 H82       -73.0464   31.7835  -75.5940 H         1 UNK         0.1032 
     83 H83       -70.8881   31.9188  -74.4574 H         1 UNK         0.0461 
     84 H84       -70.7264   29.3448  -71.3785 H         1 UNK         0.3453 
     85 H85       -70.7766   28.7698  -73.0291 H         1 UNK         0.3453 
     86 H86       -71.7713   29.3631  -75.5119 H         1 UNK         0.2984 
     87 H87       -69.4785   28.8510  -77.3642 H         1 UNK         0.0554 
     88 H88       -67.8707   27.0500  -76.6832 H         1 UNK         0.0847 
     89 H89       -67.9873   27.5821  -75.0064 H         1 UNK         0.0847 
     90 H90       -67.2936   28.6415  -76.2255 H         1 UNK         0.0847 
     91 H91       -70.8881   27.1407  -77.1526 H         1 UNK         0.3141 
     92 H92       -71.4829   24.9240  -76.0419 H         1 UNK         0.0743 
     93 H93       -73.1793   24.2157  -74.3470 H         1 UNK         0.0784 
     94 H94       -71.6053   24.5195  -73.6319 H         1 UNK         0.0784 
     95 H95       -72.8870   25.7019  -73.4390 H         1 UNK         0.0784 
     96 H96       -73.9576   26.4326  -75.6206 H         1 UNK         0.3213 
     97 H97       -74.2856   27.8856  -78.5057 H         1 UNK         0.0855 
     98 H98       -74.9212   24.9620  -79.1513 H         1 UNK         0.0814 
     99 H99       -74.0846   26.1196  -80.1693 H         1 UNK         0.0814 
    100 H100      -75.7929   26.3371  -79.8290 H         1 UNK         0.0814 
    101 H101      -75.8907   25.9449  -76.8792 H         1 UNK         0.3105 
    102 H102      -77.2079   28.5913  -74.9766 H         1 UNK         0.0547 
    103 H103      -78.8686   28.8692  -76.7375 H         1 UNK         0.0837 
    104 H104      -78.8247   27.1645  -77.1525 H         1 UNK         0.0837 
    105 H105      -79.4894   27.6754  -75.6107 H         1 UNK         0.0837 
    106 H106      -78.0478   25.9300  -74.9397 H         1 UNK         0.3020 
    107 H107      -75.3137   24.6463  -72.9825 H         1 UNK         0.1245 
    108 H108      -77.5664   24.2064  -71.6116 H         1 UNK         0.0781 
    109 H109      -77.9875   25.8159  -72.1220 H         1 UNK         0.0781 
    110 H110      -76.5152   27.5082  -69.0425 H         1 UNK         0.0836 
    111 H111      -77.9910   26.7766  -69.6150 H         1 UNK         0.0836 
    112 H112      -77.7681   24.0233  -74.5461 H         1 UNK         0.3022 
    113 H113      -76.0488   21.3080  -75.9689 H         1 UNK         0.0747 
    114 H114      -78.0126   19.8847  -75.4334 H         1 UNK         0.0793 
    115 H115      -77.0115   20.0795  -74.0054 H         1 UNK         0.0793 
    116 H116      -78.5047   20.9958  -74.1535 H         1 UNK         0.0793 
    117 H117      -78.7120   22.0957  -76.3874 H         1 UNK         0.3047 
    118 H118      -78.3160   25.1505  -78.0567 H         1 UNK         0.0822 
    119 H119      -78.8852   22.4428  -79.3676 H         1 UNK         0.0807 
    120 H120      -77.6366   23.5746  -79.8701 H         1 UNK         0.0807 
    121 H121      -79.3260   24.0264  -80.0092 H         1 UNK         0.0807 
    122 H122      -80.6252   23.6375  -77.9421 H         1 UNK         0.2946 
    123 H123      -82.3231   24.3812  -76.5766 H         1 UNK         0.1144 
    124 H124      -81.3046   22.5539  -74.3182 H         1 UNK         0.0793 
    125 H125      -81.6930   22.0381  -75.9537 H         1 UNK         0.0793 
    126 H126      -82.9675   22.6252  -74.9008 H         1 UNK         0.0793 
    127 H127      -82.1048   24.7992  -73.7102 H         1 UNK         0.2896 
@<TRIPOS>BOND
     1    1    2 1    
     2    1   67 1    
     3    1   68 1    
     4    1   69 1    
     5    2    3 2    
     6    2    4 am   BACKBONE|DICT|INTERRES
     7    4    5 1    
     8    4   70 1    
     9    5    6 1    
    10    5   65 1    
    11    5   71 1    
    12    6    7 1    
    13    6   72 1    
    14    6   73 1    
    15    7    8 1    
    16    8    9 1    
    17    8   74 1    
    18    8   75 1    
    19    9   10 ar   
    20    9   14 ar   
    21   10   11 ar   
    22   10   76 1    
    23   11   12 ar   
    24   11   48 1    
    25   12   13 ar   
    26   12   77 1    
    27   13   14 ar   
    28   13   15 1    
    29   14   78 1    
    30   15   16 1    
    31   15   79 1    
    32   15   80 1    
    33   16   17 1    
    34   17   18 1    
    35   17   81 1    
    36   17   82 1    
    37   18   19 1    
    38   18   22 1    
    39   18   83 1    
    40   19   20 am   BACKBONE|DICT|INTERRES
    41   19   21 2    
    42   20   84 1    
    43   20   85 1    
    44   22   23 am   BACKBONE|DICT|INTERRES
    45   22   86 1    
    46   23   24 2    
    47   23   25 1    
    48   25   26 1    
    49   25   27 1    
    50   25   87 1    
    51   26   88 1    
    52   26   89 1    
    53   26   90 1    
    54   27   28 am   BACKBONE|DICT|INTERRES
    55   27   91 1    
    56   28   29 2    
    57   28   30 1    
    58   30   31 1    
    59   30   32 1    
    60   30   92 1    
    61   31   93 1    
    62   31   94 1    
    63   31   95 1    
    64   32   33 am   BACKBONE|DICT|INTERRES
    65   32   96 1    
    66   33   34 2    
    67   33   35 1    
    68   35   36 1    
    69   35   37 1    
    70   35   97 1    
    71   36   98 1    
    72   36   99 1    
    73   36  100 1    
    74   37   38 am   BACKBONE|DICT|INTERRES
    75   37  101 1    
    76   38   39 2    
    77   38   40 1    
    78   40   41 1    
    79   40   42 1    
    80   40  102 1    
    81   41  103 1    
    82   41  104 1    
    83   41  105 1    
    84   42   43 am   BACKBONE|DICT|INTERRES
    85   42  106 1    
    86   43   44 2    
    87   43   45 1    
    88   45   46 1    
    89   45   49 1    
    90   45  107 1    
    91   46   47 1    
    92   46  108 1    
    93   46  109 1    
    94   47   48 1    
    95   48  110 1    
    96   48  111 1    
    97   49   50 am   BACKBONE|DICT|INTERRES
    98   49  112 1    
    99   50   51 2    
   100   50   52 1    
   101   52   53 1    
   102   52   54 1    
   103   52  113 1    
   104   53  114 1    
   105   53  115 1    
   106   53  116 1    
   107   54   55 am   BACKBONE|DICT|INTERRES
   108   54  117 1    
   109   55   56 2    
   110   55   57 1    
   111   57   58 1    
   112   57   59 1    
   113   57  118 1    
   114   58  119 1    
   115   58  120 1    
   116   58  121 1    
   117   59   60 am   BACKBONE|DICT|INTERRES
   118   59  122 1    
   119   60   61 2    
   120   60   62 1    
   121   62   63 1    
   122   62   64 1    
   123   62  123 1    
   124   63  124 1    
   125   63  125 1    
   126   63  126 1    
   127   64   65 am   BACKBONE|DICT|INTERRES
   128   64  127 1    
   129   65   66 2    
@<TRIPOS>SUBSTRUCTURE
     1 UNK         1 GROUP             0       ****    0 ROOT    
