@<TRIPOS>MOLECULE
3R135
127   129    1
SMALL
USER_CHARGES


@<TRIPOS>ATOM
      1 CA        -77.3690   26.6441  -72.3888 C.3       0 UNK        -0.1998 
      2 C         -78.4749   26.3914  -71.3795 C.2       0 UNK         0.4909 
      3 O         -78.2787   25.6486  -70.4159 O.2       0 UNK        -0.5240 
      4 N         -79.6372   27.0170  -71.5884 N.am      1 UNK        -0.4739 
      5 CA        -80.8154   26.9018  -70.7296 C.3       1 UNK         0.0864 
      6 C6        -81.6806   28.1845  -70.7687 C.3       11 UNK        -0.0881 
      7 S7        -80.7464   29.6322  -70.1637 S.3       11 UNK        -0.2682 
      8 C8        -80.7921   30.7529  -71.5968 C.3       11 UNK         0.0289 
      9 C9        -79.9795   30.2510  -72.7852 C.ar      11 UNK        -0.0687 
     10 C10       -80.6273   29.7319  -73.9082 C.ar      11 UNK        -0.0823 
     11 C11       -79.9015   29.3800  -75.0493 C.ar      11 UNK        -0.0830 
     12 C12       -78.5114   29.5390  -75.0567 C.ar      11 UNK        -0.1021 
     13 C13       -77.8387   30.0261  -73.9268 C.ar      11 UNK        -0.0753 
     14 C14       -78.5871   30.3775  -72.7965 C.ar      11 UNK        -0.0933 
     15 C15       -76.3253   30.2621  -73.8848 C.3       11 UNK         0.0166 
     16 S16       -75.3486   29.6522  -75.3089 S.3       11 UNK        -0.2615 
     17 C17       -74.8134   27.9914  -74.7654 C.3       11 UNK        -0.0865 
     18 CA        -73.7263   27.9896  -73.6525 C.3       10 UNK         0.0862 
     19 C         -73.3350   26.5379  -73.2415 C.2       10 UNK         0.5551 
     20 N         -72.0752   26.1243  -73.3277 N.am      10 UNK        -0.7319 
     21 O         -74.1917   25.7724  -72.8117 O.2       10 UNK        -0.5018 
     22 N         -72.5748   28.8437  -73.9863 N.am      10 UNK        -0.4509 
     23 C         -71.7811   29.4253  -73.0753 C.2       10 UNK         0.4899 
     24 O         -72.0021   29.3908  -71.8633 O.2       10 UNK        -0.4839 
     25 CA        -70.5284   30.1642  -73.5972 C.3       9 UNK         0.0222 
     26 CB        -69.4343   30.3142  -72.5182 C.3       9 UNK        -0.1966 
     27 N         -69.9653   29.5805  -74.8216 N.am      9 UNK        -0.4218 
     28 C         -69.5425   28.3200  -74.9983 C.2       9 UNK         0.5020 
     29 O         -69.5316   27.4561  -74.1187 O.2       9 UNK        -0.5274 
     30 CA        -69.1295   27.9439  -76.4320 C.3       8 UNK         0.0270 
     31 CB        -67.7374   27.2897  -76.4547 C.3       8 UNK        -0.1976 
     32 N         -70.1003   27.0435  -77.0638 N.am      8 UNK        -0.4313 
     33 C         -71.4109   27.2862  -77.2029 C.2       8 UNK         0.5041 
     34 O         -71.9670   28.3119  -76.7970 O.2       8 UNK        -0.5577 
     35 CA        -72.2410   26.1885  -77.8915 C.3       7 UNK         0.0284 
     36 CB        -72.5238   25.0307  -76.9204 C.3       7 UNK        -0.1958 
     37 N         -73.5136   26.7318  -78.3665 N.am      7 UNK        -0.4454 
     38 C         -73.6484   27.5326  -79.4322 C.2       7 UNK         0.5089 
     39 O         -72.7440   27.7336  -80.2451 O.2       7 UNK        -0.5125 
     40 CA        -74.9892   28.2778  -79.6033 C.3       6 UNK         0.0408 
     41 CB        -75.5044   28.2278  -81.0576 C.3       6 UNK        -0.1791 
     42 N         -76.0358   27.8949  -78.6427 N.am      6 UNK        -0.4762 
     43 C         -76.6950   26.7288  -78.5775 C.2       6 UNK         0.5007 
     44 O         -76.5213   25.7913  -79.3596 O.2       6 UNK        -0.5032 
     45 CA        -77.7381   26.6040  -77.4498 C.3       5 UNK         0.0783 
     46 C46       -79.1108   27.1363  -77.9228 C.3       11 UNK        -0.0857 
     47 S47       -80.3726   27.1171  -76.6011 S.3       11 UNK        -0.2512 
     48 C48       -80.6375   28.8928  -76.2905 C.3       11 UNK         0.0225 
     49 N         -77.8307   25.2288  -76.9618 N.am      5 UNK        -0.4615 
     50 C         -76.8692   24.5868  -76.2886 C.2       4 UNK         0.5053 
     51 O         -75.7730   25.0885  -76.0369 O.2       4 UNK        -0.5105 
     52 CA        -77.1922   23.1507  -75.8212 C.3       4 UNK         0.0263 
     53 CB        -76.3677   22.7389  -74.5823 C.3       4 UNK        -0.1981 
     54 N         -78.6280   22.9027  -75.5984 N.am      4 UNK        -0.4224 
     55 C         -79.4308   23.5412  -74.7311 C.2       3 UNK         0.4895 
     56 O         -79.0539   24.4582  -74.0018 O.2       3 UNK        -0.5091 
     57 CA        -80.9170   23.1272  -74.6962 C.3       3 UNK         0.0250 
     58 CB        -81.2013   21.7168  -75.2631 C.3       3 UNK        -0.1996 
     59 N         -81.4812   23.2877  -73.3504 N.am      3 UNK        -0.4254 
     60 C         -81.1208   22.6322  -72.2373 C.2       2 UNK         0.5004 
     61 O         -80.3295   21.6869  -72.2127 O.2       2 UNK        -0.5226 
     62 CA        -81.7249   23.1631  -70.9243 C.3       2 UNK         0.0269 
     63 CB        -81.4712   22.2241  -69.7297 C.3       2 UNK        -0.1926 
     64 N         -81.1742   24.4836  -70.6118 N.am      2 UNK        -0.4687 
     65 C         -81.6050   25.6414  -71.1278 C.2       1 UNK         0.5165 
     66 O         -82.5515   25.7220  -71.9147 O.2       1 UNK        -0.5079 
     67 H67       -76.5973   27.2800  -71.9567 H         1 UNK         0.0900 
     68 H68       -77.7547   27.1241  -73.2880 H         1 UNK         0.0900 
     69 H69       -76.9125   25.7008  -72.6875 H         1 UNK         0.0900 
     70 H70       -79.7443   27.6114  -72.3987 H         1 UNK         0.2959 
     71 H71       -80.4901   26.7681  -69.6949 H         1 UNK         0.1079 
     72 H72       -82.0577   28.3719  -71.7751 H         1 UNK         0.0837 
     73 H73       -82.5608   28.0674  -70.1339 H         1 UNK         0.0837 
     74 H74       -81.8311   30.9244  -71.8831 H         1 UNK         0.0685 
     75 H75       -80.4042   31.7245  -71.2874 H         1 UNK         0.0685 
     76 H76       -81.7051   29.6412  -73.9091 H         1 UNK         0.1434 
     77 H77       -77.9673   29.3052  -75.9577 H         1 UNK         0.1329 
     78 H78       -78.0871   30.7860  -71.9285 H         1 UNK         0.1335 
     79 H79       -76.1627   31.3389  -73.8221 H         1 UNK         0.0680 
     80 H80       -75.9238   29.8465  -72.9610 H         1 UNK         0.0680 
     81 H81       -75.6920   27.4289  -74.4511 H         1 UNK         0.1032 
     82 H82       -74.4324   27.4709  -75.6444 H         1 UNK         0.1032 
     83 H83       -74.1920   28.4094  -72.7604 H         1 UNK         0.0461 
     84 H84       -71.3327   26.7419  -73.6375 H         1 UNK         0.3453 
     85 H85       -71.8530   25.1846  -73.0425 H         1 UNK         0.3453 
     86 H86       -72.3214   28.8756  -74.9711 H         1 UNK         0.2984 
     87 H87       -70.8644   31.1664  -73.8668 H         1 UNK         0.0554 
     88 H88       -68.5689   30.8545  -72.9017 H         1 UNK         0.0847 
     89 H89       -69.0906   29.3451  -72.1547 H         1 UNK         0.0847 
     90 H90       -69.8048   30.8713  -71.6569 H         1 UNK         0.0847 
     91 H91       -69.9890   30.1817  -75.6342 H         1 UNK         0.3141 
     92 H92       -69.0836   28.8524  -77.0360 H         1 UNK         0.0743 
     93 H93       -67.7253   26.3445  -75.9101 H         1 UNK         0.0784 
     94 H94       -67.4052   27.0947  -77.4746 H         1 UNK         0.0784 
     95 H95       -66.9940   27.9405  -75.9922 H         1 UNK         0.0784 
     96 H96       -69.7371   26.1621  -77.3971 H         1 UNK         0.3213 
     97 H97       -71.6795   25.8066  -78.7470 H         1 UNK         0.0855 
     98 H98       -73.0589   25.3692  -76.0331 H         1 UNK         0.0814 
     99 H99       -71.5989   24.5630  -76.5811 H         1 UNK         0.0814 
    100 H100      -73.1253   24.2537  -77.3927 H         1 UNK         0.0814 
    101 H101      -74.3057   26.6272  -77.7500 H         1 UNK         0.3105 
    102 H102      -74.7667   29.3221  -79.3794 H         1 UNK         0.0547 
    103 H103      -74.7866   28.6832  -81.7409 H         1 UNK         0.0837 
    104 H104      -75.6659   27.2054  -81.3994 H         1 UNK         0.0837 
    105 H105      -76.4421   28.7723  -81.1673 H         1 UNK         0.0837 
    106 H106      -76.2393   28.6010  -77.9475 H         1 UNK         0.3020 
    107 H107      -77.3968   27.2082  -76.6077 H         1 UNK         0.1245 
    108 H108      -79.4868   26.5304  -78.7496 H         1 UNK         0.0781 
    109 H109      -79.0111   28.1470  -78.3216 H         1 UNK         0.0781 
    110 H110      -81.7109   29.0535  -76.1779 H         1 UNK         0.0836 
    111 H111      -80.3453   29.4943  -77.1516 H         1 UNK         0.0836 
    112 H112      -78.7021   24.7523  -77.1345 H         1 UNK         0.3022 
    113 H113      -76.8951   22.4985  -76.6435 H         1 UNK         0.0747 
    114 H114      -75.2977   22.7893  -74.7883 H         1 UNK         0.0793 
    115 H115      -76.5628   23.3935  -73.7322 H         1 UNK         0.0793 
    116 H116      -76.5912   21.7167  -74.2774 H         1 UNK         0.0793 
    117 H117      -79.0360   22.1705  -76.1631 H         1 UNK         0.3047 
    118 H118      -81.4411   23.8480  -75.3258 H         1 UNK         0.0822 
    119 H119      -82.2521   21.4518  -75.1446 H         1 UNK         0.0807 
    120 H120      -80.6097   20.9474  -74.7654 H         1 UNK         0.0807 
    121 H121      -80.9835   21.6648  -76.3303 H         1 UNK         0.0807 
    122 H122      -82.0748   24.1002  -73.2234 H         1 UNK         0.2946 
    123 H123      -82.8059   23.2407  -71.0644 H         1 UNK         0.1144 
    124 H124      -80.4066   22.1143  -69.5187 H         1 UNK         0.0793 
    125 H125      -81.8701   21.2279  -69.9255 H         1 UNK         0.0793 
    126 H126      -81.9552   22.5938  -68.8256 H         1 UNK         0.0793 
    127 H127      -80.3215   24.4991  -70.0661 H         1 UNK         0.2896 
@<TRIPOS>BOND
     1    1    2 1    
     2    1   67 1    
     3    1   68 1    
     4    1   69 1    
     5    2    3 2    
     6    2    4 am   BACKBONE|DICT|INTERRES
     7    4    5 1    
     8    4   70 1    
     9    5    6 1    
    10    5   65 1    
    11    5   71 1    
    12    6    7 1    
    13    6   72 1    
    14    6   73 1    
    15    7    8 1    
    16    8    9 1    
    17    8   74 1    
    18    8   75 1    
    19    9   10 ar   
    20    9   14 ar   
    21   10   11 ar   
    22   10   76 1    
    23   11   12 ar   
    24   11   48 1    
    25   12   13 ar   
    26   12   77 1    
    27   13   14 ar   
    28   13   15 1    
    29   14   78 1    
    30   15   16 1    
    31   15   79 1    
    32   15   80 1    
    33   16   17 1    
    34   17   18 1    
    35   17   81 1    
    36   17   82 1    
    37   18   19 1    
    38   18   22 1    
    39   18   83 1    
    40   19   20 am   BACKBONE|DICT|INTERRES
    41   19   21 2    
    42   20   84 1    
    43   20   85 1    
    44   22   23 am   BACKBONE|DICT|INTERRES
    45   22   86 1    
    46   23   24 2    
    47   23   25 1    
    48   25   26 1    
    49   25   27 1    
    50   25   87 1    
    51   26   88 1    
    52   26   89 1    
    53   26   90 1    
    54   27   28 am   BACKBONE|DICT|INTERRES
    55   27   91 1    
    56   28   29 2    
    57   28   30 1    
    58   30   31 1    
    59   30   32 1    
    60   30   92 1    
    61   31   93 1    
    62   31   94 1    
    63   31   95 1    
    64   32   33 am   BACKBONE|DICT|INTERRES
    65   32   96 1    
    66   33   34 2    
    67   33   35 1    
    68   35   36 1    
    69   35   37 1    
    70   35   97 1    
    71   36   98 1    
    72   36   99 1    
    73   36  100 1    
    74   37   38 am   BACKBONE|DICT|INTERRES
    75   37  101 1    
    76   38   39 2    
    77   38   40 1    
    78   40   41 1    
    79   40   42 1    
    80   40  102 1    
    81   41  103 1    
    82   41  104 1    
    83   41  105 1    
    84   42   43 am   BACKBONE|DICT|INTERRES
    85   42  106 1    
    86   43   44 2    
    87   43   45 1    
    88   45   46 1    
    89   45   49 1    
    90   45  107 1    
    91   46   47 1    
    92   46  108 1    
    93   46  109 1    
    94   47   48 1    
    95   48  110 1    
    96   48  111 1    
    97   49   50 am   BACKBONE|DICT|INTERRES
    98   49  112 1    
    99   50   51 2    
   100   50   52 1    
   101   52   53 1    
   102   52   54 1    
   103   52  113 1    
   104   53  114 1    
   105   53  115 1    
   106   53  116 1    
   107   54   55 am   BACKBONE|DICT|INTERRES
   108   54  117 1    
   109   55   56 2    
   110   55   57 1    
   111   57   58 1    
   112   57   59 1    
   113   57  118 1    
   114   58  119 1    
   115   58  120 1    
   116   58  121 1    
   117   59   60 am   BACKBONE|DICT|INTERRES
   118   59  122 1    
   119   60   61 2    
   120   60   62 1    
   121   62   63 1    
   122   62   64 1    
   123   62  123 1    
   124   63  124 1    
   125   63  125 1    
   126   63  126 1    
   127   64   65 am   BACKBONE|DICT|INTERRES
   128   64  127 1    
   129   65   66 2    
@<TRIPOS>SUBSTRUCTURE
     1 UNK         1 GROUP             0       ****    0 ROOT    
