@<TRIPOS>MOLECULE
3R135
127   129    1
SMALL
USER_CHARGES


@<TRIPOS>ATOM
      1 CA        -77.9276   29.2869  -74.9844 C.3       0 UNK        -0.1998 
      2 C         -78.9575   30.4081  -74.9161 C.2       0 UNK         0.4909 
      3 O         -78.6886   31.5095  -75.3914 O.2       0 UNK        -0.5240 
      4 N         -80.1443   30.1843  -74.3376 N.am      1 UNK        -0.4739 
      5 CA        -80.6514   28.9056  -73.8278 C.3       1 UNK         0.0864 
      6 C6        -81.8599   29.1496  -72.8903 C.3       11 UNK        -0.0881 
      7 S7        -82.1104   27.7959  -71.6960 S.3       11 UNK        -0.2682 
      8 C8        -81.3782   28.5044  -70.1859 C.3       11 UNK         0.0289 
      9 C9        -79.8572   28.4790  -70.2279 C.ar      11 UNK        -0.0687 
     10 C10       -79.1820   27.2793  -69.9864 C.ar      11 UNK        -0.0823 
     11 C11       -77.7866   27.2372  -70.0075 C.ar      11 UNK        -0.0830 
     12 C12       -77.0666   28.4128  -70.2250 C.ar      11 UNK        -0.1021 
     13 C13       -77.7240   29.6115  -70.5094 C.ar      11 UNK        -0.0753 
     14 C14       -79.1242   29.6401  -70.5046 C.ar      11 UNK        -0.0933 
     15 C15       -76.9166   30.8676  -70.8189 C.3       11 UNK         0.0166 
     16 S16       -76.0802   30.7748  -72.4412 S.3       11 UNK        -0.2615 
     17 C17       -74.6003   29.7696  -72.0712 C.3       11 UNK        -0.0865 
     18 CA        -73.3728   30.1777  -72.9299 C.3       10 UNK         0.0862 
     19 C         -72.0285   29.7774  -72.2445 C.2       10 UNK         0.5551 
     20 N         -71.0940   29.1076  -72.9079 N.am      10 UNK        -0.7319 
     21 O         -71.8196   30.0965  -71.0766 O.2       10 UNK        -0.5018 
     22 N         -73.5110   29.7066  -74.3196 N.am      10 UNK        -0.4509 
     23 C         -72.9148   30.2705  -75.3771 C.2       10 UNK         0.4899 
     24 O         -72.2738   31.3217  -75.3230 O.2       10 UNK        -0.4839 
     25 CA        -73.0293   29.4997  -76.7077 C.3       9 UNK         0.0222 
     26 CB        -72.1882   30.1215  -77.8417 C.3       9 UNK        -0.1966 
     27 N         -72.7171   28.0718  -76.5626 N.am      9 UNK        -0.4218 
     28 C         -71.5955   27.5178  -76.0764 C.2       9 UNK         0.5020 
     29 O         -70.6231   28.1681  -75.6924 O.2       9 UNK        -0.5274 
     30 CA        -71.5523   25.9827  -75.9458 C.3       8 UNK         0.0270 
     31 CB        -71.6885   25.5797  -74.4678 C.3       8 UNK        -0.1976 
     32 N         -72.5854   25.2933  -76.7234 N.am      8 UNK        -0.4313 
     33 C         -72.5758   25.1501  -78.0563 C.2       8 UNK         0.5041 
     34 O         -71.6417   25.5020  -78.7775 O.2       8 UNK        -0.5577 
     35 CA        -73.8477   24.5619  -78.6954 C.3       7 UNK         0.0284 
     36 CB        -73.8432   23.0271  -78.6204 C.3       7 UNK        -0.1958 
     37 N         -75.0734   25.0902  -78.0857 N.am      7 UNK        -0.4454 
     38 C         -75.4378   26.3805  -78.1221 C.2       7 UNK         0.5089 
     39 O         -74.8258   27.2484  -78.7425 O.2       7 UNK        -0.5125 
     40 CA        -76.6468   26.7925  -77.2737 C.3       6 UNK         0.0408 
     41 CB        -77.9605   26.5935  -78.0453 C.3       6 UNK        -0.1791 
     42 N         -76.6908   26.0733  -75.9988 N.am      6 UNK        -0.4762 
     43 C         -75.9043   26.3400  -74.9436 C.2       6 UNK         0.5007 
     44 O         -75.1086   27.2791  -74.9001 O.2       6 UNK        -0.5032 
     45 CA        -76.0136   25.3861  -73.7378 C.3       5 UNK         0.0783 
     46 C46       -77.0687   25.9130  -72.7407 C.3       11 UNK        -0.0857 
     47 S47       -77.3282   24.8172  -71.2963 S.3       11 UNK        -0.2512 
     48 C48       -77.0470   25.9152  -69.8644 C.3       11 UNK         0.0225 
     49 N         -76.2786   24.0102  -74.1639 N.am      5 UNK        -0.4615 
     50 C         -75.3886   23.2383  -74.8005 C.2       4 UNK         0.5053 
     51 O         -74.2511   23.6089  -75.0867 O.2       4 UNK        -0.5105 
     52 CA        -75.8534   21.8378  -75.2336 C.3       4 UNK         0.0263 
     53 CB        -75.5581   20.8120  -74.1285 C.3       4 UNK        -0.1981 
     54 N         -77.2724   21.7727  -75.5939 N.am      4 UNK        -0.4224 
     55 C         -77.8572   22.4879  -76.5653 C.2       3 UNK         0.4895 
     56 O         -77.2492   23.2871  -77.2800 O.2       3 UNK        -0.5091 
     57 CA        -79.3743   22.3025  -76.7692 C.3       3 UNK         0.0250 
     58 CB        -80.0198   21.2664  -75.8194 C.3       3 UNK        -0.1996 
     59 N         -80.1126   23.5704  -76.6996 N.am      3 UNK        -0.4254 
     60 C         -80.1092   24.4550  -75.6912 C.2       2 UNK         0.5004 
     61 O         -79.4011   24.3613  -74.6851 O.2       2 UNK        -0.5226 
     62 CA        -81.0876   25.6290  -75.8258 C.3       2 UNK         0.0269 
     63 CB        -82.5406   25.1604  -75.6178 C.3       2 UNK        -0.1926 
     64 N         -80.7689   26.6628  -74.8412 N.am      2 UNK        -0.4687 
     65 C         -81.0246   27.9665  -74.9966 C.2       1 UNK         0.5165 
     66 O         -81.5472   28.4388  -76.0094 O.2       1 UNK        -0.5079 
     67 H67       -78.2766   28.4917  -75.6379 H         1 UNK         0.0900 
     68 H68       -76.9810   29.6578  -75.3776 H         1 UNK         0.0900 
     69 H69       -77.7288   28.8695  -73.9984 H         1 UNK         0.0900 
     70 H70       -80.8159   30.9382  -74.3362 H         1 UNK         0.2959 
     71 H71       -79.8559   28.4401  -73.2427 H         1 UNK         0.1079 
     72 H72       -82.7818   29.2979  -73.4569 H         1 UNK         0.0837 
     73 H73       -81.7198   30.0738  -72.3274 H         1 UNK         0.0837 
     74 H74       -81.7216   27.9239  -69.3283 H         1 UNK         0.0685 
     75 H75       -81.7490   29.5184  -70.0290 H         1 UNK         0.0685 
     76 H76       -79.7434   26.3714  -69.8112 H         1 UNK         0.1434 
     77 H77       -75.9880   28.3797  -70.2158 H         1 UNK         0.1329 
     78 H78       -79.6437   30.5655  -70.7125 H         1 UNK         0.1335 
     79 H79       -77.5718   31.7400  -70.8252 H         1 UNK         0.0680 
     80 H80       -76.1869   31.0461  -70.0280 H         1 UNK         0.0680 
     81 H81       -74.8332   28.7143  -72.2216 H         1 UNK         0.1032 
     82 H82       -74.3822   29.8870  -71.0085 H         1 UNK         0.1032 
     83 H83       -73.3472   31.2689  -72.9532 H         1 UNK         0.0461 
     84 H84       -70.2370   28.8744  -72.4329 H         1 UNK         0.3453 
     85 H85       -71.1947   28.8846  -73.8907 H         1 UNK         0.3453 
     86 H86       -74.0248   28.8405  -74.4575 H         1 UNK         0.2984 
     87 H87       -74.0778   29.5540  -77.0041 H         1 UNK         0.0554 
     88 H88       -72.4819   31.1557  -78.0252 H         1 UNK         0.0847 
     89 H89       -72.3223   29.5763  -78.7761 H         1 UNK         0.0847 
     90 H90       -71.1241   30.1220  -77.6030 H         1 UNK         0.0847 
     91 H91       -73.4652   27.4444  -76.8242 H         1 UNK         0.3141 
     92 H92       -70.5753   25.6510  -76.3033 H         1 UNK         0.0743 
     93 H93       -70.9020   26.0331  -73.8629 H         1 UNK         0.0784 
     94 H94       -72.6445   25.8982  -74.0508 H         1 UNK         0.0784 
     95 H95       -71.6110   24.4995  -74.3416 H         1 UNK         0.0784 
     96 H96       -73.3482   24.8751  -76.1951 H         1 UNK         0.3213 
     97 H97       -73.8545   24.8503  -79.7488 H         1 UNK         0.0855 
     98 H98       -73.7728   22.6715  -77.5930 H         1 UNK         0.0814 
     99 H99       -72.9907   22.6165  -79.1628 H         1 UNK         0.0814 
    100 H100      -74.7450   22.6030  -79.0625 H         1 UNK         0.0814 
    101 H101      -75.6837   24.4302  -77.6114 H         1 UNK         0.3105 
    102 H102      -76.5384   27.8587  -77.0685 H         1 UNK         0.0547 
    103 H103      -78.8121   26.9732  -77.4828 H         1 UNK         0.0837 
    104 H104      -78.1471   25.5447  -78.2752 H         1 UNK         0.0837 
    105 H105      -77.9377   27.1325  -78.9934 H         1 UNK         0.0837 
    106 H106      -77.2810   25.2519  -75.9576 H         1 UNK         0.3020 
    107 H107      -75.0439   25.3947  -73.2347 H         1 UNK         0.1245 
    108 H108      -78.0354   26.0461  -73.2278 H         1 UNK         0.0781 
    109 H109      -76.7670   26.9054  -72.4097 H         1 UNK         0.0781 
    110 H110      -75.9740   26.0787  -69.7524 H         1 UNK         0.0836 
    111 H111      -77.3766   25.4097  -68.9557 H         1 UNK         0.0836 
    112 H112      -77.2125   23.6610  -73.9908 H         1 UNK         0.3022 
    113 H113      -75.2793   21.5594  -76.1188 H         1 UNK         0.0747 
    114 H114      -75.7966   19.7986  -74.4521 H         1 UNK         0.0793 
    115 H115      -74.5009   20.8232  -73.8591 H         1 UNK         0.0793 
    116 H116      -76.1275   21.0195  -73.2214 H         1 UNK         0.0793 
    117 H117      -77.8512   21.1523  -75.0469 H         1 UNK         0.3047 
    118 H118      -79.4919   21.9327  -77.7889 H         1 UNK         0.0822 
    119 H119      -81.0784   21.1392  -76.0465 H         1 UNK         0.0807 
    120 H120      -79.9464   21.5649  -74.7726 H         1 UNK         0.0807 
    121 H121      -79.5576   20.2839  -75.9249 H         1 UNK         0.0807 
    122 H122      -80.7054   23.7611  -77.4955 H         1 UNK         0.2946 
    123 H123      -80.9807   26.0384  -76.8329 H         1 UNK         0.1144 
    124 H124      -82.6875   24.7429  -74.6208 H         1 UNK         0.0793 
    125 H125      -82.8192   24.3909  -76.3388 H         1 UNK         0.0793 
    126 H126      -83.2449   25.9834  -75.7409 H         1 UNK         0.0793 
    127 H127      -80.3131   26.3183  -74.0053 H         1 UNK         0.2896 
@<TRIPOS>BOND
     1    1    2 1    
     2    1   67 1    
     3    1   68 1    
     4    1   69 1    
     5    2    3 2    
     6    2    4 am   BACKBONE|DICT|INTERRES
     7    4    5 1    
     8    4   70 1    
     9    5    6 1    
    10    5   65 1    
    11    5   71 1    
    12    6    7 1    
    13    6   72 1    
    14    6   73 1    
    15    7    8 1    
    16    8    9 1    
    17    8   74 1    
    18    8   75 1    
    19    9   10 ar   
    20    9   14 ar   
    21   10   11 ar   
    22   10   76 1    
    23   11   12 ar   
    24   11   48 1    
    25   12   13 ar   
    26   12   77 1    
    27   13   14 ar   
    28   13   15 1    
    29   14   78 1    
    30   15   16 1    
    31   15   79 1    
    32   15   80 1    
    33   16   17 1    
    34   17   18 1    
    35   17   81 1    
    36   17   82 1    
    37   18   19 1    
    38   18   22 1    
    39   18   83 1    
    40   19   20 am   BACKBONE|DICT|INTERRES
    41   19   21 2    
    42   20   84 1    
    43   20   85 1    
    44   22   23 am   BACKBONE|DICT|INTERRES
    45   22   86 1    
    46   23   24 2    
    47   23   25 1    
    48   25   26 1    
    49   25   27 1    
    50   25   87 1    
    51   26   88 1    
    52   26   89 1    
    53   26   90 1    
    54   27   28 am   BACKBONE|DICT|INTERRES
    55   27   91 1    
    56   28   29 2    
    57   28   30 1    
    58   30   31 1    
    59   30   32 1    
    60   30   92 1    
    61   31   93 1    
    62   31   94 1    
    63   31   95 1    
    64   32   33 am   BACKBONE|DICT|INTERRES
    65   32   96 1    
    66   33   34 2    
    67   33   35 1    
    68   35   36 1    
    69   35   37 1    
    70   35   97 1    
    71   36   98 1    
    72   36   99 1    
    73   36  100 1    
    74   37   38 am   BACKBONE|DICT|INTERRES
    75   37  101 1    
    76   38   39 2    
    77   38   40 1    
    78   40   41 1    
    79   40   42 1    
    80   40  102 1    
    81   41  103 1    
    82   41  104 1    
    83   41  105 1    
    84   42   43 am   BACKBONE|DICT|INTERRES
    85   42  106 1    
    86   43   44 2    
    87   43   45 1    
    88   45   46 1    
    89   45   49 1    
    90   45  107 1    
    91   46   47 1    
    92   46  108 1    
    93   46  109 1    
    94   47   48 1    
    95   48  110 1    
    96   48  111 1    
    97   49   50 am   BACKBONE|DICT|INTERRES
    98   49  112 1    
    99   50   51 2    
   100   50   52 1    
   101   52   53 1    
   102   52   54 1    
   103   52  113 1    
   104   53  114 1    
   105   53  115 1    
   106   53  116 1    
   107   54   55 am   BACKBONE|DICT|INTERRES
   108   54  117 1    
   109   55   56 2    
   110   55   57 1    
   111   57   58 1    
   112   57   59 1    
   113   57  118 1    
   114   58  119 1    
   115   58  120 1    
   116   58  121 1    
   117   59   60 am   BACKBONE|DICT|INTERRES
   118   59  122 1    
   119   60   61 2    
   120   60   62 1    
   121   62   63 1    
   122   62   64 1    
   123   62  123 1    
   124   63  124 1    
   125   63  125 1    
   126   63  126 1    
   127   64   65 am   BACKBONE|DICT|INTERRES
   128   64  127 1    
   129   65   66 2    
@<TRIPOS>SUBSTRUCTURE
     1 UNK         1 GROUP             0       ****    0 ROOT    
