@<TRIPOS>MOLECULE
3R135
127   129    1
SMALL
USER_CHARGES


@<TRIPOS>ATOM
      1 CA        -81.1307   22.6794  -70.3931 C.3       0 UNK        -0.1998 
      2 C         -81.3212   23.8358  -71.3619 C.2       0 UNK         0.4909 
      3 O         -80.5818   23.9352  -72.3405 O.2       0 UNK        -0.5240 
      4 N         -82.3126   24.6998  -71.1006 N.am      1 UNK        -0.4739 
      5 CA        -82.6944   25.9158  -71.8429 C.3       1 UNK         0.0864 
      6 C6        -81.5751   26.9854  -71.9491 C.3       11 UNK        -0.0881 
      7 S7        -80.8356   27.4664  -70.3491 S.3       11 UNK        -0.2682 
      8 C8        -79.0577   27.1647  -70.6577 C.3       11 UNK         0.0289 
      9 C9        -78.3254   28.3202  -71.3467 C.ar      11 UNK        -0.0687 
     10 C10       -78.9084   29.0473  -72.3915 C.ar      11 UNK        -0.0823 
     11 C11       -78.2257   30.0970  -73.0100 C.ar      11 UNK        -0.0830 
     12 C12       -76.9341   30.4191  -72.5870 C.ar      11 UNK        -0.1021 
     13 C13       -76.3303   29.6997  -71.5518 C.ar      11 UNK        -0.0753 
     14 C14       -77.0284   28.6532  -70.9390 C.ar      11 UNK        -0.0933 
     15 C15       -74.9334   30.0691  -71.0793 C.3       11 UNK         0.0166 
     16 S16       -73.6641   29.0546  -71.8944 S.3       11 UNK        -0.2615 
     17 C17       -72.1486   29.7716  -71.1719 C.3       11 UNK        -0.0865 
     18 CA        -71.3319   30.5993  -72.1991 C.3       10 UNK         0.0862 
     19 C         -70.2108   31.4118  -71.4844 C.2       10 UNK         0.5551 
     20 N         -68.9331   31.1496  -71.7323 N.am      10 UNK        -0.7319 
     21 O         -70.5105   32.3008  -70.6913 O.2       10 UNK        -0.5018 
     22 N         -70.8681   29.7602  -73.3179 N.am      10 UNK        -0.4509 
     23 C         -70.4525   30.2172  -74.5070 C.2       10 UNK         0.4899 
     24 O         -70.4467   31.4084  -74.8185 O.2       10 UNK        -0.4839 
     25 CA        -69.9334   29.1785  -75.5198 C.3       9 UNK         0.0222 
     26 CB        -68.3961   29.1989  -75.5638 C.3       9 UNK        -0.1966 
     27 N         -70.3867   27.8124  -75.2365 N.am      9 UNK        -0.4218 
     28 C         -71.6067   27.3450  -75.5313 C.2       9 UNK         0.5020 
     29 O         -72.4761   28.0049  -76.1036 O.2       9 UNK        -0.5274 
     30 CA        -71.9064   25.9125  -75.0688 C.3       8 UNK         0.0270 
     31 CB        -72.4789   25.9171  -73.6417 C.3       8 UNK        -0.1976 
     32 N         -72.8636   25.2702  -75.9700 N.am      8 UNK        -0.4313 
     33 C         -72.5133   24.5430  -77.0387 C.2       8 UNK         0.5041 
     34 O         -71.3444   24.3179  -77.3584 O.2       8 UNK        -0.5577 
     35 CA        -73.6443   23.9413  -77.8893 C.3       7 UNK         0.0284 
     36 CB        -74.2059   22.6732  -77.2269 C.3       7 UNK        -0.1958 
     37 N         -74.7344   24.8774  -78.1677 N.am      7 UNK        -0.4454 
     38 C         -74.6369   25.9284  -78.9949 C.2       7 UNK         0.5089 
     39 O         -73.6030   26.2475  -79.5830 O.2       7 UNK        -0.5125 
     40 CA        -75.9163   26.7457  -79.2331 C.3       6 UNK         0.0408 
     41 CB        -76.7976   26.0755  -80.3000 C.3       6 UNK        -0.1791 
     42 N         -76.6838   26.9127  -77.9997 N.am      6 UNK        -0.4762 
     43 C         -76.4863   27.9045  -77.1184 C.2       6 UNK         0.5007 
     44 O         -75.6912   28.8263  -77.3030 O.2       6 UNK        -0.5032 
     45 CA        -77.3125   27.8605  -75.8111 C.3       5 UNK         0.0783 
     46 C46       -78.5990   28.7185  -75.9259 C.3       11 UNK        -0.0857 
     47 S47       -78.2479   30.5040  -75.7674 S.3       11 UNK        -0.2512 
     48 C48       -78.9024   30.8974  -74.1149 C.3       11 UNK         0.0225 
     49 N         -77.6224   26.4906  -75.3875 N.am      5 UNK        -0.4615 
     50 C         -76.7042   25.5860  -75.0152 C.2       4 UNK         0.5053 
     51 O         -75.4979   25.8143  -74.9649 O.2       4 UNK        -0.5105 
     52 CA        -77.2000   24.1636  -74.7051 C.3       4 UNK         0.0263 
     53 CB        -77.4922   24.0254  -73.2059 C.3       4 UNK        -0.1981 
     54 N         -78.3730   23.7636  -75.4914 N.am      4 UNK        -0.4224 
     55 C         -78.4052   23.7214  -76.8329 C.2       3 UNK         0.4895 
     56 O         -77.4344   23.9980  -77.5393 O.2       3 UNK        -0.5091 
     57 CA        -79.7289   23.3416  -77.5209 C.3       3 UNK         0.0250 
     58 CB        -79.6595   21.8962  -78.0389 C.3       3 UNK        -0.1996 
     59 N         -80.9422   23.5026  -76.7103 N.am      3 UNK        -0.4254 
     60 C         -81.3907   24.6470  -76.1743 C.2       2 UNK         0.5004 
     61 O         -80.7635   25.7083  -76.2064 O.2       2 UNK        -0.5226 
     62 CA        -82.7527   24.6038  -75.4630 C.3       2 UNK         0.0269 
     63 CB        -83.5217   23.2728  -75.6065 C.3       2 UNK        -0.1926 
     64 N         -82.5180   24.8826  -74.0542 N.am      2 UNK        -0.4687 
     65 C         -83.2697   25.6350  -73.2486 C.2       1 UNK         0.5165 
     66 O         -84.3539   26.1194  -73.5763 O.2       1 UNK        -0.5079 
     67 H67       -81.8447   22.7130  -69.5705 H         1 UNK         0.0900 
     68 H68       -81.2553   21.7306  -70.9141 H         1 UNK         0.0900 
     69 H69       -80.1261   22.7080  -69.9723 H         1 UNK         0.0900 
     70 H70       -82.8863   24.5237  -70.2874 H         1 UNK         0.2959 
     71 H71       -83.5083   26.3588  -71.2662 H         1 UNK         0.1079 
     72 H72       -80.7875   26.6405  -72.6218 H         1 UNK         0.0837 
     73 H73       -81.9811   27.8920  -72.4022 H         1 UNK         0.0837 
     74 H74       -78.5941   26.9642  -69.6907 H         1 UNK         0.0685 
     75 H75       -78.9331   26.2540  -71.2428 H         1 UNK         0.0685 
     76 H76       -79.9039   28.8136  -72.7293 H         1 UNK         0.1434 
     77 H77       -76.4012   31.2313  -73.0628 H         1 UNK         0.1329 
     78 H78       -76.5564   28.0985  -70.1395 H         1 UNK         0.1335 
     79 H79       -74.8629   29.9392  -69.9981 H         1 UNK         0.0680 
     80 H80       -74.7348   31.1236  -71.2783 H         1 UNK         0.0680 
     81 H81       -71.5403   28.9598  -70.7691 H         1 UNK         0.1032 
     82 H82       -72.4239   30.3860  -70.3122 H         1 UNK         0.1032 
     83 H83       -72.0066   31.3472  -72.6208 H         1 UNK         0.0461 
     84 H84       -68.2187   31.6856  -71.2651 H         1 UNK         0.3453 
     85 H85       -68.6776   30.4246  -72.3823 H         1 UNK         0.3453 
     86 H86       -70.8528   28.7664  -73.1505 H         1 UNK         0.2984 
     87 H87       -70.3019   29.4710  -76.5055 H         1 UNK         0.0554 
     88 H88       -68.0252   30.1981  -75.7974 H         1 UNK         0.0847 
     89 H89       -68.0121   28.5275  -76.3321 H         1 UNK         0.0847 
     90 H90       -67.9572   28.9042  -74.6099 H         1 UNK         0.0847 
     91 H91       -69.7290   27.2017  -74.7721 H         1 UNK         0.3141 
     92 H92       -70.9757   25.3407  -75.0576 H         1 UNK         0.0743 
     93 H93       -73.3800   26.5273  -73.5717 H         1 UNK         0.0784 
     94 H94       -72.7325   24.9097  -73.3115 H         1 UNK         0.0784 
     95 H95       -71.7592   26.3210  -72.9290 H         1 UNK         0.0784 
     96 H96       -73.8466   25.4634  -75.7860 H         1 UNK         0.3213 
     97 H97       -73.2118   23.6487  -78.8489 H         1 UNK         0.0855 
     98 H98       -74.6128   22.8814  -76.2385 H         1 UNK         0.0814 
     99 H99       -73.4246   21.9223  -77.1032 H         1 UNK         0.0814 
    100 H100      -74.9962   22.2240  -77.8289 H         1 UNK         0.0814 
    101 H101      -75.6464   24.6516  -77.7800 H         1 UNK         0.3105 
    102 H102      -75.6233   27.7260  -79.6153 H         1 UNK         0.0547 
    103 H103      -77.6867   26.6700  -80.5099 H         1 UNK         0.0837 
    104 H104      -77.1239   25.0805  -79.9959 H         1 UNK         0.0837 
    105 H105      -76.2535   25.9653  -81.2390 H         1 UNK         0.0837 
    106 H106      -77.3158   26.1608  -77.7539 H         1 UNK         0.3020 
    107 H107      -76.6824   28.2865  -75.0255 H         1 UNK         0.1245 
    108 H108      -79.3165   28.4353  -75.1550 H         1 UNK         0.0781 
    109 H109      -79.1116   28.5379  -76.8729 H         1 UNK         0.0781 
    110 H110      -79.9812   30.7329  -74.1101 H         1 UNK         0.0836 
    111 H111      -78.7601   31.9624  -73.9256 H         1 UNK         0.0836 
    112 H112      -78.5931   26.2076  -75.4402 H         1 UNK         0.3022 
    113 H113      -76.3965   23.4696  -74.9526 H         1 UNK         0.0747 
    114 H114      -77.8646   23.0320  -72.9552 H         1 UNK         0.0793 
    115 H115      -76.5894   24.1940  -72.6172 H         1 UNK         0.0793 
    116 H116      -78.2294   24.7573  -72.8802 H         1 UNK         0.0793 
    117 H117      -79.2116   23.5330  -74.9780 H         1 UNK         0.3047 
    118 H118      -79.8306   24.0050  -78.3823 H         1 UNK         0.0822 
    119 H119      -80.5346   21.6453  -78.6388 H         1 UNK         0.0807 
    120 H120      -79.5932   21.1773  -77.2212 H         1 UNK         0.0807 
    121 H121      -78.7838   21.7490  -78.6733 H         1 UNK         0.0807 
    122 H122      -81.5191   22.6802  -76.6071 H         1 UNK         0.2946 
    123 H123      -83.3547   25.4034  -75.9010 H         1 UNK         0.1144 
    124 H124      -82.9907   22.4389  -75.1456 H         1 UNK         0.0793 
    125 H125      -83.6989   23.0267  -76.6545 H         1 UNK         0.0793 
    126 H126      -84.4995   23.3384  -75.1289 H         1 UNK         0.0793 
    127 H127      -81.6468   24.5290  -73.6599 H         1 UNK         0.2896 
@<TRIPOS>BOND
     1    1    2 1    
     2    1   67 1    
     3    1   68 1    
     4    1   69 1    
     5    2    3 2    
     6    2    4 am   BACKBONE|DICT|INTERRES
     7    4    5 1    
     8    4   70 1    
     9    5    6 1    
    10    5   65 1    
    11    5   71 1    
    12    6    7 1    
    13    6   72 1    
    14    6   73 1    
    15    7    8 1    
    16    8    9 1    
    17    8   74 1    
    18    8   75 1    
    19    9   10 ar   
    20    9   14 ar   
    21   10   11 ar   
    22   10   76 1    
    23   11   12 ar   
    24   11   48 1    
    25   12   13 ar   
    26   12   77 1    
    27   13   14 ar   
    28   13   15 1    
    29   14   78 1    
    30   15   16 1    
    31   15   79 1    
    32   15   80 1    
    33   16   17 1    
    34   17   18 1    
    35   17   81 1    
    36   17   82 1    
    37   18   19 1    
    38   18   22 1    
    39   18   83 1    
    40   19   20 am   BACKBONE|DICT|INTERRES
    41   19   21 2    
    42   20   84 1    
    43   20   85 1    
    44   22   23 am   BACKBONE|DICT|INTERRES
    45   22   86 1    
    46   23   24 2    
    47   23   25 1    
    48   25   26 1    
    49   25   27 1    
    50   25   87 1    
    51   26   88 1    
    52   26   89 1    
    53   26   90 1    
    54   27   28 am   BACKBONE|DICT|INTERRES
    55   27   91 1    
    56   28   29 2    
    57   28   30 1    
    58   30   31 1    
    59   30   32 1    
    60   30   92 1    
    61   31   93 1    
    62   31   94 1    
    63   31   95 1    
    64   32   33 am   BACKBONE|DICT|INTERRES
    65   32   96 1    
    66   33   34 2    
    67   33   35 1    
    68   35   36 1    
    69   35   37 1    
    70   35   97 1    
    71   36   98 1    
    72   36   99 1    
    73   36  100 1    
    74   37   38 am   BACKBONE|DICT|INTERRES
    75   37  101 1    
    76   38   39 2    
    77   38   40 1    
    78   40   41 1    
    79   40   42 1    
    80   40  102 1    
    81   41  103 1    
    82   41  104 1    
    83   41  105 1    
    84   42   43 am   BACKBONE|DICT|INTERRES
    85   42  106 1    
    86   43   44 2    
    87   43   45 1    
    88   45   46 1    
    89   45   49 1    
    90   45  107 1    
    91   46   47 1    
    92   46  108 1    
    93   46  109 1    
    94   47   48 1    
    95   48  110 1    
    96   48  111 1    
    97   49   50 am   BACKBONE|DICT|INTERRES
    98   49  112 1    
    99   50   51 2    
   100   50   52 1    
   101   52   53 1    
   102   52   54 1    
   103   52  113 1    
   104   53  114 1    
   105   53  115 1    
   106   53  116 1    
   107   54   55 am   BACKBONE|DICT|INTERRES
   108   54  117 1    
   109   55   56 2    
   110   55   57 1    
   111   57   58 1    
   112   57   59 1    
   113   57  118 1    
   114   58  119 1    
   115   58  120 1    
   116   58  121 1    
   117   59   60 am   BACKBONE|DICT|INTERRES
   118   59  122 1    
   119   60   61 2    
   120   60   62 1    
   121   62   63 1    
   122   62   64 1    
   123   62  123 1    
   124   63  124 1    
   125   63  125 1    
   126   63  126 1    
   127   64   65 am   BACKBONE|DICT|INTERRES
   128   64  127 1    
   129   65   66 2    
@<TRIPOS>SUBSTRUCTURE
     1 UNK         1 GROUP             0       ****    0 ROOT    
