@<TRIPOS>MOLECULE
3R135
127   129    1
SMALL
USER_CHARGES


@<TRIPOS>ATOM
      1 CA        -79.2762   31.4711  -75.1954 C.3       0 UNK        -0.1998 
      2 C         -78.7756   30.0437  -75.0397 C.2       0 UNK         0.4909 
      3 O         -77.6451   29.7507  -75.4236 O.2       0 UNK        -0.5240 
      4 N         -79.6092   29.1579  -74.4770 N.am      1 UNK        -0.4739 
      5 CA        -79.2779   27.7578  -74.1809 C.3       1 UNK         0.0864 
      6 C6        -80.3675   27.0517  -73.3265 C.3       11 UNK        -0.0881 
      7 S7        -81.0253   28.0490  -71.9453 S.3       11 UNK        -0.2682 
      8 C8        -80.1328   27.3601  -70.5162 C.3       11 UNK         0.0289 
      9 C9        -78.6603   27.7426  -70.5264 C.ar      11 UNK        -0.0687 
     10 C10       -77.6711   26.7579  -70.5829 C.ar      11 UNK        -0.0823 
     11 C11       -76.3168   27.1101  -70.5906 C.ar      11 UNK        -0.0830 
     12 C12       -75.9558   28.4608  -70.5295 C.ar      11 UNK        -0.1021 
     13 C13       -76.9392   29.4536  -70.4636 C.ar      11 UNK        -0.0753 
     14 C14       -78.2869   29.0870  -70.4604 C.ar      11 UNK        -0.0933 
     15 C15       -76.5651   30.9245  -70.3746 C.3       11 UNK         0.0166 
     16 S16       -76.4377   31.6880  -72.0223 S.3       11 UNK        -0.2615 
     17 C17       -74.6832   31.3966  -72.4338 C.3       11 UNK        -0.0865 
     18 CA        -74.4607   30.6516  -73.7852 C.3       10 UNK         0.0862 
     19 C         -74.4957   31.5989  -75.0264 C.2       10 UNK         0.5551 
     20 N         -73.6224   31.4394  -76.0159 N.am      10 UNK        -0.7319 
     21 O         -75.3319   32.4948  -75.1085 O.2       10 UNK        -0.5018 
     22 N         -73.2913   29.7564  -73.7528 N.am      10 UNK        -0.4509 
     23 C         -72.0415   30.1020  -73.4079 C.2       10 UNK         0.4899 
     24 O         -71.7252   31.2090  -72.9717 O.2       10 UNK        -0.4839 
     25 CA        -70.9407   29.0419  -73.5940 C.3       9 UNK         0.0222 
     26 CB        -70.7865   28.2039  -72.3144 C.3       9 UNK        -0.1966 
     27 N         -71.1672   28.1495  -74.7327 N.am      9 UNK        -0.4218 
     28 C         -71.2748   28.5312  -76.0132 C.2       9 UNK         0.5020 
     29 O         -71.1500   29.6952  -76.3977 O.2       9 UNK        -0.5274 
     30 CA        -71.6316   27.4423  -77.0412 C.3       8 UNK         0.0270 
     31 CB        -71.3712   26.0009  -76.5458 C.3       8 UNK        -0.1976 
     32 N         -73.0172   27.5682  -77.5073 N.am      8 UNK        -0.4313 
     33 C         -74.1246   27.6123  -76.7511 C.2       8 UNK         0.5041 
     34 O         -74.1236   27.6226  -75.5196 O.2       8 UNK        -0.5577 
     35 CA        -75.4745   27.5957  -77.4826 C.3       7 UNK         0.0284 
     36 CB        -75.4558   28.2199  -78.8961 C.3       7 UNK        -0.1958 
     37 N         -76.0079   26.2330  -77.4798 N.am      7 UNK        -0.4454 
     38 C         -75.4952   25.1490  -78.0833 C.2       7 UNK         0.5089 
     39 O         -74.5823   25.1787  -78.9105 O.2       7 UNK        -0.5125 
     40 CA        -76.0980   23.8009  -77.6452 C.3       6 UNK         0.0408 
     41 CB        -75.3241   22.5785  -78.1820 C.3       6 UNK        -0.1791 
     42 N         -76.2559   23.7357  -76.1877 N.am      6 UNK        -0.4762 
     43 C         -75.2884   23.7885  -75.2551 C.2       6 UNK         0.5007 
     44 O         -74.0827   23.7727  -75.5020 O.2       6 UNK        -0.5032 
     45 CA        -75.7645   23.8732  -73.7903 C.3       5 UNK         0.0783 
     46 C46       -75.8802   25.3523  -73.3271 C.3       11 UNK        -0.0857 
     47 S47       -74.4783   25.8940  -72.2941 S.3       11 UNK        -0.2512 
     48 C48       -75.2461   26.0273  -70.6474 C.3       11 UNK         0.0225 
     49 N         -77.0226   23.1383  -73.6023 N.am      5 UNK        -0.4615 
     50 C         -77.1255   21.8039  -73.5657 C.2       4 UNK         0.5053 
     51 O         -76.1555   21.0461  -73.5836 O.2       4 UNK        -0.5105 
     52 CA        -78.5432   21.2035  -73.5286 C.3       4 UNK         0.0263 
     53 CB        -79.2086   21.4103  -72.1523 C.3       4 UNK        -0.1981 
     54 N         -79.4092   21.6443  -74.6352 N.am      4 UNK        -0.4224 
     55 C         -79.9064   22.8680  -74.8585 C.2       3 UNK         0.4895 
     56 O         -79.7175   23.8318  -74.1130 O.2       3 UNK        -0.5091 
     57 CA        -80.7596   23.0458  -76.1223 C.3       3 UNK         0.0250 
     58 CB        -82.2296   22.7068  -75.8265 C.3       3 UNK        -0.1996 
     59 N         -80.6699   24.4418  -76.5440 N.am      3 UNK        -0.4254 
     60 C         -80.0627   24.8889  -77.6493 C.2       2 UNK         0.5004 
     61 O         -79.6608   24.1582  -78.5545 O.2       2 UNK        -0.5226 
     62 CA        -79.8406   26.4118  -77.7603 C.3       2 UNK         0.0269 
     63 CB        -80.8721   27.0390  -78.7113 C.3       2 UNK        -0.1926 
     64 N         -79.8771   27.1255  -76.4762 N.am      2 UNK        -0.4687 
     65 C         -79.0153   26.9407  -75.4638 C.2       1 UNK         0.5165 
     66 O         -78.0662   26.1597  -75.5217 O.2       1 UNK        -0.5079 
     67 H67       -78.5945   32.1590  -74.6948 H         1 UNK         0.0900 
     68 H68       -80.2693   31.6054  -74.7673 H         1 UNK         0.0900 
     69 H69       -79.3186   31.7410  -76.2502 H         1 UNK         0.0900 
     70 H70       -80.5169   29.4619  -74.1537 H         1 UNK         0.2959 
     71 H71       -78.3483   27.7646  -73.6061 H         1 UNK         0.1079 
     72 H72       -81.2263   26.7770  -73.9420 H         1 UNK         0.0837 
     73 H73       -79.9762   26.1140  -72.9292 H         1 UNK         0.0837 
     74 H74       -80.5884   27.7418  -69.6016 H         1 UNK         0.0685 
     75 H75       -80.2624   26.2768  -70.4945 H         1 UNK         0.0685 
     76 H76       -77.9555   25.7152  -70.6238 H         1 UNK         0.1434 
     77 H77       -74.9100   28.7356  -70.5340 H         1 UNK         0.1329 
     78 H78       -79.0511   29.8509  -70.4124 H         1 UNK         0.1335 
     79 H79       -77.3274   31.4608  -69.8074 H         1 UNK         0.0680 
     80 H80       -75.6371   31.0544  -69.8159 H         1 UNK         0.0680 
     81 H81       -74.2357   30.8224  -71.6226 H         1 UNK         0.1032 
     82 H82       -74.1582   32.3536  -72.4268 H         1 UNK         0.1032 
     83 H83       -75.2998   29.9696  -73.9280 H         1 UNK         0.0461 
     84 H84       -73.6637   32.0614  -76.8069 H         1 UNK         0.3453 
     85 H85       -72.8932   30.7385  -75.9655 H         1 UNK         0.3453 
     86 H86       -73.4512   28.8423  -74.1725 H         1 UNK         0.2984 
     87 H87       -70.0018   29.5694  -73.7739 H         1 UNK         0.0554 
     88 H88       -69.9535   27.5051  -72.3929 H         1 UNK         0.0847 
     89 H89       -71.6887   27.6302  -72.0963 H         1 UNK         0.0847 
     90 H90       -70.5911   28.8422  -71.4515 H         1 UNK         0.0847 
     91 H91       -71.3444   27.1784  -74.5196 H         1 UNK         0.3141 
     92 H92       -70.9910   27.6156  -77.9071 H         1 UNK         0.0743 
     93 H93       -72.0295   25.7191  -75.7227 H         1 UNK         0.0784 
     94 H94       -71.5367   25.2807  -77.3474 H         1 UNK         0.0784 
     95 H95       -70.3405   25.8754  -76.2114 H         1 UNK         0.0784 
     96 H96       -73.1437   27.5529  -78.5095 H         1 UNK         0.3213 
     97 H97       -76.1572   28.1900  -76.8749 H         1 UNK         0.0855 
     98 H98       -75.0754   29.2417  -78.8609 H         1 UNK         0.0814 
     99 H99       -76.4631   28.2685  -79.3096 H         1 UNK         0.0814 
    100 H100      -74.8395   27.6647  -79.6025 H         1 UNK         0.0814 
    101 H101      -76.7260   26.0747  -76.7743 H         1 UNK         0.3105 
    102 H102      -77.1017   23.7610  -78.0665 H         1 UNK         0.0547 
    103 H103      -75.3269   22.5668  -79.2725 H         1 UNK         0.0837 
    104 H104      -74.2816   22.5827  -77.8630 H         1 UNK         0.0837 
    105 H105      -75.7747   21.6446  -77.8466 H         1 UNK         0.0837 
    106 H106      -77.2070   23.8028  -75.8523 H         1 UNK         0.3020 
    107 H107      -75.0062   23.3702  -73.1854 H         1 UNK         0.1245 
    108 H108      -76.8123   25.5092  -72.7884 H         1 UNK         0.0781 
    109 H109      -75.9317   26.0472  -74.1667 H         1 UNK         0.0781 
    110 H110      -74.4691   26.2505  -69.9149 H         1 UNK         0.0836 
    111 H111      -75.6586   25.0572  -70.3654 H         1 UNK         0.0836 
    112 H112      -77.8870   23.6738  -73.6199 H         1 UNK         0.3022 
    113 H113      -78.4261   20.1271  -73.6659 H         1 UNK         0.0747 
    114 H114      -80.1854   20.9285  -72.1094 H         1 UNK         0.0793 
    115 H115      -78.5986   20.9765  -71.3590 H         1 UNK         0.0793 
    116 H116      -79.3456   22.4646  -71.9109 H         1 UNK         0.0793 
    117 H117      -79.6145   20.9267  -75.3174 H         1 UNK         0.3047 
    118 H118      -80.3851   22.3800  -76.9028 H         1 UNK         0.0822 
    119 H119      -82.8526   22.8489  -76.7098 H         1 UNK         0.0807 
    120 H120      -82.6357   23.3288  -75.0275 H         1 UNK         0.0807 
    121 H121      -82.3385   21.6663  -75.5177 H         1 UNK         0.0807 
    122 H122      -80.8984   25.1187  -75.8305 H         1 UNK         0.2946 
    123 H123      -78.8475   26.5569  -78.1912 H         1 UNK         0.1144 
    124 H124      -80.8505   26.5522  -79.6875 H         1 UNK         0.0793 
    125 H125      -80.6688   28.0975  -78.8758 H         1 UNK         0.0793 
    126 H126      -81.8874   26.9465  -78.3235 H         1 UNK         0.0793 
    127 H127      -80.6143   27.8052  -76.3544 H         1 UNK         0.2896 
@<TRIPOS>BOND
     1    1    2 1    
     2    1   67 1    
     3    1   68 1    
     4    1   69 1    
     5    2    3 2    
     6    2    4 am   BACKBONE|DICT|INTERRES
     7    4    5 1    
     8    4   70 1    
     9    5    6 1    
    10    5   65 1    
    11    5   71 1    
    12    6    7 1    
    13    6   72 1    
    14    6   73 1    
    15    7    8 1    
    16    8    9 1    
    17    8   74 1    
    18    8   75 1    
    19    9   10 ar   
    20    9   14 ar   
    21   10   11 ar   
    22   10   76 1    
    23   11   12 ar   
    24   11   48 1    
    25   12   13 ar   
    26   12   77 1    
    27   13   14 ar   
    28   13   15 1    
    29   14   78 1    
    30   15   16 1    
    31   15   79 1    
    32   15   80 1    
    33   16   17 1    
    34   17   18 1    
    35   17   81 1    
    36   17   82 1    
    37   18   19 1    
    38   18   22 1    
    39   18   83 1    
    40   19   20 am   BACKBONE|DICT|INTERRES
    41   19   21 2    
    42   20   84 1    
    43   20   85 1    
    44   22   23 am   BACKBONE|DICT|INTERRES
    45   22   86 1    
    46   23   24 2    
    47   23   25 1    
    48   25   26 1    
    49   25   27 1    
    50   25   87 1    
    51   26   88 1    
    52   26   89 1    
    53   26   90 1    
    54   27   28 am   BACKBONE|DICT|INTERRES
    55   27   91 1    
    56   28   29 2    
    57   28   30 1    
    58   30   31 1    
    59   30   32 1    
    60   30   92 1    
    61   31   93 1    
    62   31   94 1    
    63   31   95 1    
    64   32   33 am   BACKBONE|DICT|INTERRES
    65   32   96 1    
    66   33   34 2    
    67   33   35 1    
    68   35   36 1    
    69   35   37 1    
    70   35   97 1    
    71   36   98 1    
    72   36   99 1    
    73   36  100 1    
    74   37   38 am   BACKBONE|DICT|INTERRES
    75   37  101 1    
    76   38   39 2    
    77   38   40 1    
    78   40   41 1    
    79   40   42 1    
    80   40  102 1    
    81   41  103 1    
    82   41  104 1    
    83   41  105 1    
    84   42   43 am   BACKBONE|DICT|INTERRES
    85   42  106 1    
    86   43   44 2    
    87   43   45 1    
    88   45   46 1    
    89   45   49 1    
    90   45  107 1    
    91   46   47 1    
    92   46  108 1    
    93   46  109 1    
    94   47   48 1    
    95   48  110 1    
    96   48  111 1    
    97   49   50 am   BACKBONE|DICT|INTERRES
    98   49  112 1    
    99   50   51 2    
   100   50   52 1    
   101   52   53 1    
   102   52   54 1    
   103   52  113 1    
   104   53  114 1    
   105   53  115 1    
   106   53  116 1    
   107   54   55 am   BACKBONE|DICT|INTERRES
   108   54  117 1    
   109   55   56 2    
   110   55   57 1    
   111   57   58 1    
   112   57   59 1    
   113   57  118 1    
   114   58  119 1    
   115   58  120 1    
   116   58  121 1    
   117   59   60 am   BACKBONE|DICT|INTERRES
   118   59  122 1    
   119   60   61 2    
   120   60   62 1    
   121   62   63 1    
   122   62   64 1    
   123   62  123 1    
   124   63  124 1    
   125   63  125 1    
   126   63  126 1    
   127   64   65 am   BACKBONE|DICT|INTERRES
   128   64  127 1    
   129   65   66 2    
@<TRIPOS>SUBSTRUCTURE
     1 UNK         1 GROUP             0       ****    0 ROOT    
