@<TRIPOS>MOLECULE
3R135
127   129    1
SMALL
USER_CHARGES


@<TRIPOS>ATOM
      1 CA        -83.4094   22.5541  -73.9272 C.3       0 UNK        -0.1998 
      2 C         -82.3502   23.6002  -73.6170 C.2       0 UNK         0.4909 
      3 O         -81.1716   23.3701  -73.8894 O.2       0 UNK        -0.5240 
      4 N         -82.7656   24.7522  -73.0672 N.am      1 UNK        -0.4739 
      5 CA        -81.9149   25.8848  -72.6706 C.3       1 UNK         0.0864 
      6 C6        -81.0812   25.5610  -71.4004 C.3       11 UNK        -0.0881 
      7 S7        -80.4558   27.0505  -70.5434 S.3       11 UNK        -0.2682 
      8 C8        -78.6548   26.7495  -70.5576 C.3       11 UNK         0.0289 
      9 C9        -77.8370   27.9993  -70.8523 C.ar      11 UNK        -0.0687 
     10 C10       -78.1377   28.7933  -71.9622 C.ar      11 UNK        -0.0823 
     11 C11       -77.3387   29.8892  -72.2958 C.ar      11 UNK        -0.0830 
     12 C12       -76.2375   30.2035  -71.4947 C.ar      11 UNK        -0.1021 
     13 C13       -75.9221   29.4167  -70.3824 C.ar      11 UNK        -0.0753 
     14 C14       -76.7275   28.3185  -70.0638 C.ar      11 UNK        -0.0933 
     15 C15       -74.6907   29.7278  -69.5468 C.3       11 UNK         0.0166 
     16 S16       -73.2317   28.8911  -70.2424 S.3       11 UNK        -0.2615 
     17 C17       -72.0648   30.2753  -70.4850 C.3       11 UNK        -0.0865 
     18 CA        -72.4434   31.2580  -71.6349 C.3       10 UNK         0.0862 
     19 C         -71.4153   32.4224  -71.7763 C.2       10 UNK         0.5551 
     20 N         -71.1459   32.9263  -72.9746 N.am      10 UNK        -0.7319 
     21 O         -70.8760   32.9014  -70.7814 O.2       10 UNK        -0.5018 
     22 N         -72.8033   30.5922  -72.9014 N.am      10 UNK        -0.4509 
     23 C         -72.0134   29.8078  -73.6437 C.2       10 UNK         0.4899 
     24 O         -70.8440   29.5288  -73.3690 O.2       10 UNK        -0.4839 
     25 CA        -72.6356   29.3061  -74.9557 C.3       9 UNK         0.0222 
     26 CB        -72.4119   30.3287  -76.0821 C.3       9 UNK        -0.1966 
     27 N         -72.0931   28.0115  -75.3697 N.am      9 UNK        -0.4218 
     28 C         -72.3962   26.8448  -74.7889 C.2       9 UNK         0.5020 
     29 O         -73.1619   26.7299  -73.8305 O.2       9 UNK        -0.5274 
     30 CA        -71.7580   25.5930  -75.4018 C.3       8 UNK         0.0270 
     31 CB        -71.1581   24.6667  -74.3267 C.3       8 UNK        -0.1976 
     32 N         -72.7766   24.8790  -76.1680 N.am      8 UNK        -0.4313 
     33 C         -72.5366   24.1051  -77.2335 C.2       8 UNK         0.5041 
     34 O         -71.4097   23.8957  -77.6862 O.2       8 UNK        -0.5577 
     35 CA        -73.7509   23.4565  -77.9219 C.3       7 UNK         0.0284 
     36 CB        -74.2704   22.2543  -77.1161 C.3       7 UNK        -0.1958 
     37 N         -74.8378   24.4091  -78.1557 N.am      7 UNK        -0.4454 
     38 C         -74.8144   25.3694  -79.0911 C.2       7 UNK         0.5089 
     39 O         -73.8984   25.5147  -79.9015 O.2       7 UNK        -0.5125 
     40 CA        -76.0092   26.3402  -79.1314 C.3       6 UNK         0.0408 
     41 CB        -77.1234   25.7993  -80.0407 C.3       6 UNK        -0.1791 
     42 N         -76.5539   26.6322  -77.8037 N.am      6 UNK        -0.4762 
     43 C         -75.8973   27.3111  -76.8513 C.2       6 UNK         0.5007 
     44 O         -74.7931   27.8217  -77.0293 O.2       6 UNK        -0.5032 
     45 CA        -76.5766   27.4132  -75.4678 C.3       5 UNK         0.0783 
     46 C46       -77.5581   28.6139  -75.4272 C.3       11 UNK        -0.0857 
     47 S47       -76.7239   30.1789  -74.9886 S.3       11 UNK        -0.2512 
     48 C48       -77.6611   30.7273  -73.5241 C.3       11 UNK         0.0225 
     49 N         -77.2171   26.1524  -75.0628 N.am      5 UNK        -0.4615 
     50 C         -76.5741   24.9838  -74.9116 C.2       4 UNK         0.5053 
     51 O         -75.3607   24.8498  -75.0512 O.2       4 UNK        -0.5105 
     52 CA        -77.4228   23.7323  -74.6301 C.3       4 UNK         0.0263 
     53 CB        -77.7448   23.5968  -73.1380 C.3       4 UNK        -0.1981 
     54 N         -78.6595   23.7124  -75.4106 N.am      4 UNK        -0.4224 
     55 C         -78.6947   23.6027  -76.7461 C.2       3 UNK         0.4895 
     56 O         -77.6983   23.4098  -77.4433 O.2       3 UNK        -0.5091 
     57 CA        -80.0612   23.8015  -77.4198 C.3       3 UNK         0.0250 
     58 CB        -80.9083   22.5211  -77.3461 C.3       3 UNK        -0.1996 
     59 N         -80.7974   24.9292  -76.8410 N.am      3 UNK        -0.4254 
     60 C         -80.4216   26.2114  -76.9605 C.2       2 UNK         0.5004 
     61 O         -79.4457   26.5776  -77.6135 O.2       2 UNK        -0.5226 
     62 CA        -81.2513   27.2644  -76.2067 C.3       2 UNK         0.0269 
     63 CB        -82.3794   27.8004  -77.1018 C.3       2 UNK        -0.1926 
     64 N         -81.8184   26.7762  -74.9461 N.am      2 UNK        -0.4687 
     65 C         -81.0980   26.4144  -73.8737 C.2       1 UNK         0.5165 
     66 O         -79.8663   26.4348  -73.8506 O.2       1 UNK        -0.5079 
     67 H67       -84.4031   22.8728  -73.6134 H         1 UNK         0.0900 
     68 H68       -83.4382   22.3550  -74.9980 H         1 UNK         0.0900 
     69 H69       -83.1745   21.6221  -73.4139 H         1 UNK         0.0900 
     70 H70       -83.7530   24.8754  -72.8874 H         1 UNK         0.2959 
     71 H71       -82.6025   26.6899  -72.4052 H         1 UNK         0.1079 
     72 H72       -80.2785   24.8618  -71.6299 H         1 UNK         0.0837 
     73 H73       -81.7126   25.0381  -70.6805 H         1 UNK         0.0837 
     74 H74       -78.3693   26.3099  -69.6008 H         1 UNK         0.0685 
     75 H75       -78.3962   26.0194  -71.3207 H         1 UNK         0.0685 
     76 H76       -78.9911   28.5415  -72.5748 H         1 UNK         0.1434 
     77 H77       -75.6154   31.0495  -71.7489 H         1 UNK         0.1329 
     78 H78       -76.4713   27.6965  -69.2169 H         1 UNK         0.1335 
     79 H79       -74.8352   29.3926  -68.5186 H         1 UNK         0.0680 
     80 H80       -74.5356   30.8059  -69.4944 H         1 UNK         0.0680 
     81 H81       -71.0792   29.8463  -70.6727 H         1 UNK         0.1032 
     82 H82       -71.9764   30.8117  -69.5383 H         1 UNK         0.1032 
     83 H83       -73.3579   31.7633  -71.3264 H         1 UNK         0.0461 
     84 H84       -71.5863   32.5490  -73.7974 H         1 UNK         0.3453 
     85 H85       -70.4887   33.6862  -73.0548 H         1 UNK         0.3453 
     86 H86       -73.7395   30.7726  -73.2327 H         1 UNK         0.2984 
     87 H87       -73.7114   29.1892  -74.8075 H         1 UNK         0.0554 
     88 H88       -72.8520   31.2940  -75.8290 H         1 UNK         0.0847 
     89 H89       -72.8787   29.9999  -77.0111 H         1 UNK         0.0847 
     90 H90       -71.3512   30.4928  -76.2764 H         1 UNK         0.0847 
     91 H91       -71.4454   28.0198  -76.1435 H         1 UNK         0.3141 
     92 H92       -70.9544   25.9073  -76.0714 H         1 UNK         0.0743 
     93 H93       -71.9266   24.2774  -73.6574 H         1 UNK         0.0784 
     94 H94       -70.6446   23.8168  -74.7764 H         1 UNK         0.0784 
     95 H95       -70.4301   25.2008  -73.7148 H         1 UNK         0.0784 
     96 H96       -73.7355   24.9850  -75.8301 H         1 UNK         0.3213 
     97 H97       -73.4188   23.0831  -78.8932 H         1 UNK         0.0855 
     98 H98       -74.6021   22.5421  -76.1189 H         1 UNK         0.0814 
     99 H99       -73.4886   21.5037  -76.9929 H         1 UNK         0.0814 
    100 H100      -75.1082   21.7716  -77.6198 H         1 UNK         0.0814 
    101 H101      -75.6519   24.3404  -77.5565 H         1 UNK         0.3105 
    102 H102      -75.6555   27.2809  -79.5586 H         1 UNK         0.0547 
    103 H103      -76.7494   25.6182  -81.0491 H         1 UNK         0.0837 
    104 H104      -77.5287   24.8579  -79.6701 H         1 UNK         0.0837 
    105 H105      -77.9476   26.5080  -80.1224 H         1 UNK         0.0837 
    106 H106      -77.5016   26.3166  -77.6139 H         1 UNK         0.3020 
    107 H107      -75.7825   27.5846  -74.7362 H         1 UNK         0.1245 
    108 H108      -78.3497   28.4285  -74.7057 H         1 UNK         0.0781 
    109 H109      -78.0766   28.7463  -76.3791 H         1 UNK         0.0781 
    110 H110      -78.7304   30.7006  -73.7403 H         1 UNK         0.0836 
    111 H111      -77.4208   31.7729  -73.3259 H         1 UNK         0.0836 
    112 H112      -78.2124   26.1872  -74.8617 H         1 UNK         0.3022 
    113 H113      -76.8306   22.8625  -74.9224 H         1 UNK         0.0747 
    114 H114      -78.2270   22.6434  -72.9217 H         1 UNK         0.0793 
    115 H115      -76.8410   23.6556  -72.5300 H         1 UNK         0.0793 
    116 H116      -78.4156   24.3877  -72.8151 H         1 UNK         0.0793 
    117 H117      -79.5312   23.8254  -74.8990 H         1 UNK         0.3047 
    118 H118      -79.8798   24.0261  -78.4734 H         1 UNK         0.0822 
    119 H119      -81.1158   22.2266  -76.3174 H         1 UNK         0.0807 
    120 H120      -80.3905   21.6875  -77.8225 H         1 UNK         0.0807 
    121 H121      -81.8617   22.6450  -77.8599 H         1 UNK         0.0807 
    122 H122      -81.5918   24.7121  -76.2579 H         1 UNK         0.2946 
    123 H123      -80.5811   28.0938  -75.9711 H         1 UNK         0.1144 
    124 H124      -81.9805   28.1912  -78.0392 H         1 UNK         0.0793 
    125 H125      -82.9178   28.6152  -76.6173 H         1 UNK         0.0793 
    126 H126      -83.1011   27.0225  -77.3541 H         1 UNK         0.0793 
    127 H127      -82.8247   26.7032  -74.8978 H         1 UNK         0.2896 
@<TRIPOS>BOND
     1    1    2 1    
     2    1   67 1    
     3    1   68 1    
     4    1   69 1    
     5    2    3 2    
     6    2    4 am   BACKBONE|DICT|INTERRES
     7    4    5 1    
     8    4   70 1    
     9    5    6 1    
    10    5   65 1    
    11    5   71 1    
    12    6    7 1    
    13    6   72 1    
    14    6   73 1    
    15    7    8 1    
    16    8    9 1    
    17    8   74 1    
    18    8   75 1    
    19    9   10 ar   
    20    9   14 ar   
    21   10   11 ar   
    22   10   76 1    
    23   11   12 ar   
    24   11   48 1    
    25   12   13 ar   
    26   12   77 1    
    27   13   14 ar   
    28   13   15 1    
    29   14   78 1    
    30   15   16 1    
    31   15   79 1    
    32   15   80 1    
    33   16   17 1    
    34   17   18 1    
    35   17   81 1    
    36   17   82 1    
    37   18   19 1    
    38   18   22 1    
    39   18   83 1    
    40   19   20 am   BACKBONE|DICT|INTERRES
    41   19   21 2    
    42   20   84 1    
    43   20   85 1    
    44   22   23 am   BACKBONE|DICT|INTERRES
    45   22   86 1    
    46   23   24 2    
    47   23   25 1    
    48   25   26 1    
    49   25   27 1    
    50   25   87 1    
    51   26   88 1    
    52   26   89 1    
    53   26   90 1    
    54   27   28 am   BACKBONE|DICT|INTERRES
    55   27   91 1    
    56   28   29 2    
    57   28   30 1    
    58   30   31 1    
    59   30   32 1    
    60   30   92 1    
    61   31   93 1    
    62   31   94 1    
    63   31   95 1    
    64   32   33 am   BACKBONE|DICT|INTERRES
    65   32   96 1    
    66   33   34 2    
    67   33   35 1    
    68   35   36 1    
    69   35   37 1    
    70   35   97 1    
    71   36   98 1    
    72   36   99 1    
    73   36  100 1    
    74   37   38 am   BACKBONE|DICT|INTERRES
    75   37  101 1    
    76   38   39 2    
    77   38   40 1    
    78   40   41 1    
    79   40   42 1    
    80   40  102 1    
    81   41  103 1    
    82   41  104 1    
    83   41  105 1    
    84   42   43 am   BACKBONE|DICT|INTERRES
    85   42  106 1    
    86   43   44 2    
    87   43   45 1    
    88   45   46 1    
    89   45   49 1    
    90   45  107 1    
    91   46   47 1    
    92   46  108 1    
    93   46  109 1    
    94   47   48 1    
    95   48  110 1    
    96   48  111 1    
    97   49   50 am   BACKBONE|DICT|INTERRES
    98   49  112 1    
    99   50   51 2    
   100   50   52 1    
   101   52   53 1    
   102   52   54 1    
   103   52  113 1    
   104   53  114 1    
   105   53  115 1    
   106   53  116 1    
   107   54   55 am   BACKBONE|DICT|INTERRES
   108   54  117 1    
   109   55   56 2    
   110   55   57 1    
   111   57   58 1    
   112   57   59 1    
   113   57  118 1    
   114   58  119 1    
   115   58  120 1    
   116   58  121 1    
   117   59   60 am   BACKBONE|DICT|INTERRES
   118   59  122 1    
   119   60   61 2    
   120   60   62 1    
   121   62   63 1    
   122   62   64 1    
   123   62  123 1    
   124   63  124 1    
   125   63  125 1    
   126   63  126 1    
   127   64   65 am   BACKBONE|DICT|INTERRES
   128   64  127 1    
   129   65   66 2    
@<TRIPOS>SUBSTRUCTURE
     1 UNK         1 GROUP             0       ****    0 ROOT    
