@<TRIPOS>MOLECULE
3R135
127   129    1
SMALL
USER_CHARGES


@<TRIPOS>ATOM
      1 CA        -85.5973   28.1895  -74.7031 C.3       0 UNK        -0.1998 
      2 C         -84.3002   28.6801  -75.3282 C.2       0 UNK         0.4909 
      3 O         -84.3239   29.2588  -76.4148 O.2       0 UNK        -0.5240 
      4 N         -83.1672   28.4531  -74.6508 N.am      1 UNK        -0.4739 
      5 CA        -81.8237   28.8322  -75.1102 C.3       1 UNK         0.0864 
      6 C6        -80.8184   28.8942  -73.9332 C.3       11 UNK        -0.0881 
      7 S7        -80.6308   27.3058  -73.0427 S.3       11 UNK        -0.2682 
      8 C8        -80.2911   27.8568  -71.3418 C.3       11 UNK         0.0289 
      9 C9        -78.8146   28.1555  -71.1143 C.ar      11 UNK        -0.0687 
     10 C10       -78.0057   27.2325  -70.4408 C.ar      11 UNK        -0.0823 
     11 C11       -76.6641   27.5252  -70.1702 C.ar      11 UNK        -0.0830 
     12 C12       -76.1298   28.7430  -70.5972 C.ar      11 UNK        -0.1021 
     13 C13       -76.9231   29.6681  -71.2803 C.ar      11 UNK        -0.0753 
     14 C14       -78.2658   29.3721  -71.5327 C.ar      11 UNK        -0.0933 
     15 C15       -76.3307   30.9987  -71.7119 C.3       11 UNK         0.0166 
     16 S16       -75.6024   30.8866  -73.3761 S.3       11 UNK        -0.2615 
     17 C17       -74.0052   31.7465  -73.1427 C.3       11 UNK        -0.0865 
     18 CA        -72.7713   30.8062  -73.1857 C.3       10 UNK         0.0862 
     19 C         -72.6737   29.8799  -71.9396 C.2       10 UNK         0.5551 
     20 N         -72.6872   28.5614  -72.0768 N.am      10 UNK        -0.7319 
     21 O         -72.5681   30.3755  -70.8204 O.2       10 UNK        -0.5018 
     22 N         -72.6517   30.1438  -74.4936 N.am      10 UNK        -0.4509 
     23 C         -71.4977   29.7648  -75.0538 C.2       10 UNK         0.4899 
     24 O         -70.4028   29.8252  -74.4918 O.2       10 UNK        -0.4839 
     25 CA        -71.5958   29.2992  -76.5136 C.3       9 UNK         0.0222 
     26 CB        -70.4252   29.8061  -77.3834 C.3       9 UNK        -0.1966 
     27 N         -71.7836   27.8516  -76.6206 N.am      9 UNK        -0.4218 
     28 C         -70.8961   26.8648  -76.4178 C.2       9 UNK         0.5020 
     29 O         -69.7256   27.0498  -76.0817 O.2       9 UNK        -0.5274 
     30 CA        -71.3694   25.4117  -76.6503 C.3       8 UNK         0.0270 
     31 CB        -71.0798   24.5288  -75.4233 C.3       8 UNK        -0.1976 
     32 N         -72.7879   25.2905  -77.0014 N.am      8 UNK        -0.4313 
     33 C         -73.3276   25.5814  -78.1935 C.2       8 UNK         0.5041 
     34 O         -72.6676   25.8988  -79.1831 O.2       8 UNK        -0.5577 
     35 CA        -74.8660   25.5782  -78.2811 C.3       7 UNK         0.0284 
     36 CB        -75.3817   24.1942  -78.7020 C.3       7 UNK        -0.1958 
     37 N         -75.5166   25.9928  -77.0318 N.am      7 UNK        -0.4454 
     38 C         -75.3809   27.2011  -76.4643 C.2       7 UNK         0.5089 
     39 O         -74.7259   28.1187  -76.9582 O.2       7 UNK        -0.5125 
     40 CA        -76.0252   27.4027  -75.0858 C.3       6 UNK         0.0408 
     41 CB        -77.5027   27.7883  -75.2070 C.3       6 UNK        -0.1791 
     42 N         -75.8954   26.2214  -74.2361 N.am      6 UNK        -0.4762 
     43 C         -74.7454   25.8277  -73.6729 C.2       6 UNK         0.5007 
     44 O         -73.6779   26.4250  -73.8180 O.2       6 UNK        -0.5032 
     45 CA        -74.7908   24.5156  -72.8583 C.3       5 UNK         0.0783 
     46 C46       -75.4220   24.7115  -71.4585 C.3       11 UNK        -0.0857 
     47 S47       -74.4679   25.8106  -70.3626 S.3       11 UNK        -0.2512 
     48 C48       -75.8016   26.5561  -69.3701 C.3       11 UNK         0.0225 
     49 N         -75.5004   23.4550  -73.5780 N.am      5 UNK        -0.4615 
     50 C         -75.1569   22.9470  -74.7684 C.2       4 UNK         0.5053 
     51 O         -74.1384   23.2608  -75.3805 O.2       4 UNK        -0.5105 
     52 CA        -76.1516   21.9581  -75.4045 C.3       4 UNK         0.0263 
     53 CB        -75.8252   20.5190  -74.9758 C.3       4 UNK        -0.1981 
     54 N         -77.5564   22.2570  -75.0958 N.am      4 UNK        -0.4224 
     55 C         -78.1772   23.4100  -75.3853 C.2       3 UNK         0.4895 
     56 O         -77.6304   24.3579  -75.9540 O.2       3 UNK        -0.5091 
     57 CA        -79.6202   23.5475  -74.8726 C.3       3 UNK         0.0250 
     58 CB        -79.6128   23.8602  -73.3661 C.3       3 UNK        -0.1996 
     59 N         -80.3649   24.5983  -75.5718 N.am      3 UNK        -0.4254 
     60 C         -80.7561   24.5370  -76.8536 C.2       2 UNK         0.5004 
     61 O         -80.5605   23.5568  -77.5747 O.2       2 UNK        -0.5226 
     62 CA        -81.5172   25.7471  -77.4288 C.3       2 UNK         0.0269 
     63 CB        -82.8158   25.3036  -78.1277 C.3       2 UNK        -0.1926 
     64 N         -81.8615   26.7348  -76.4017 N.am      2 UNK        -0.4687 
     65 C         -81.3006   27.9442  -76.2634 C.2       1 UNK         0.5165 
     66 O         -80.4072   28.3703  -76.9960 O.2       1 UNK        -0.5079 
     67 H67       -86.2747   29.0271  -74.5389 H         1 UNK         0.0900 
     68 H68       -85.4281   27.6977  -73.7453 H         1 UNK         0.0900 
     69 H69       -86.0884   27.4788  -75.3673 H         1 UNK         0.0900 
     70 H70       -83.2001   27.9766  -73.7598 H         1 UNK         0.2959 
     71 H71       -81.8951   29.8410  -75.5238 H         1 UNK         0.1079 
     72 H72       -81.1519   29.6582  -73.2296 H         1 UNK         0.0837 
     73 H73       -79.8423   29.2325  -74.2819 H         1 UNK         0.0837 
     74 H74       -80.6204   27.0722  -70.6590 H         1 UNK         0.0685 
     75 H75       -80.8939   28.7328  -71.0990 H         1 UNK         0.0685 
     76 H76       -78.4292   26.2960  -70.1045 H         1 UNK         0.1434 
     77 H77       -75.0945   28.9741  -70.3875 H         1 UNK         0.1329 
     78 H78       -78.8853   30.0936  -72.0465 H         1 UNK         0.1335 
     79 H79       -77.0967   31.7756  -71.7098 H         1 UNK         0.0680 
     80 H80       -75.5829   31.3079  -70.9806 H         1 UNK         0.0680 
     81 H81       -73.9156   32.4892  -73.9370 H         1 UNK         0.1032 
     82 H82       -74.0110   32.3282  -72.2195 H         1 UNK         0.1032 
     83 H83       -71.9036   31.4635  -73.0974 H         1 UNK         0.0461 
     84 H84       -72.6254   27.9835  -71.2549 H         1 UNK         0.3453 
     85 H85       -72.8380   28.1231  -72.9767 H         1 UNK         0.3453 
     86 H86       -73.5148   30.0225  -75.0043 H         1 UNK         0.2984 
     87 H87       -72.5005   29.7400  -76.9354 H         1 UNK         0.0554 
     88 H88       -70.5341   29.4875  -78.4200 H         1 UNK         0.0847 
     89 H89       -69.4580   29.4541  -77.0240 H         1 UNK         0.0847 
     90 H90       -70.3881   30.8960  -77.3806 H         1 UNK         0.0847 
     91 H91       -72.7329   27.5805  -76.8528 H         1 UNK         0.3141 
     92 H92       -70.7829   25.0229  -77.4852 H         1 UNK         0.0743 
     93 H93       -70.0189   24.5393  -75.1704 H         1 UNK         0.0784 
     94 H94       -71.6274   24.8685  -74.5442 H         1 UNK         0.0784 
     95 H95       -71.3550   23.4903  -75.6083 H         1 UNK         0.0784 
     96 H96       -73.4029   24.9534  -76.2670 H         1 UNK         0.3213 
     97 H97       -75.1545   26.2978  -79.0502 H         1 UNK         0.0855 
     98 H98       -75.0415   23.4163  -78.0198 H         1 UNK         0.0814 
     99 H99       -75.0176   23.9322  -79.6962 H         1 UNK         0.0814 
    100 H100      -76.4712   24.1639  -78.7349 H         1 UNK         0.0814 
    101 H101      -76.1287   25.3173  -76.5783 H         1 UNK         0.3105 
    102 H102      -75.5037   28.2259  -74.5948 H         1 UNK         0.0547 
    103 H103      -77.9233   27.9783  -74.2208 H         1 UNK         0.0837 
    104 H104      -77.6235   28.6988  -75.7952 H         1 UNK         0.0837 
    105 H105      -78.0960   27.0078  -75.6842 H         1 UNK         0.0837 
    106 H106      -76.7138   25.6376  -74.1434 H         1 UNK         0.3020 
    107 H107      -73.7582   24.1833  -72.7287 H         1 UNK         0.1245 
    108 H108      -75.5004   23.7491  -70.9502 H         1 UNK         0.0781 
    109 H109      -76.4440   25.0807  -71.5556 H         1 UNK         0.0781 
    110 H110      -75.3538   27.0924  -68.5323 H         1 UNK         0.0836 
    111 H111      -76.4086   25.7630  -68.9307 H         1 UNK         0.0836 
    112 H112      -76.3515   23.1194  -73.1535 H         1 UNK         0.3022 
    113 H113      -76.0364   22.0224  -76.4871 H         1 UNK         0.0747 
    114 H114      -76.4596   19.7973  -75.4907 H         1 UNK         0.0793 
    115 H115      -74.7912   20.2664  -75.2159 H         1 UNK         0.0793 
    116 H116      -75.9545   20.3759  -73.9022 H         1 UNK         0.0793 
    117 H117      -78.0761   21.5328  -74.6202 H         1 UNK         0.3047 
    118 H118      -80.1387   22.6003  -75.0363 H         1 UNK         0.0822 
    119 H119      -79.1634   23.0473  -72.7947 H         1 UNK         0.0807 
    120 H120      -80.6243   23.9976  -72.9830 H         1 UNK         0.0807 
    121 H121      -79.0458   24.7652  -73.1438 H         1 UNK         0.0807 
    122 H122      -80.5353   25.4521  -75.0602 H         1 UNK         0.2946 
    123 H123      -80.8630   26.1952  -78.1803 H         1 UNK         0.1144 
    124 H124      -82.6076   24.6140  -78.9469 H         1 UNK         0.0793 
    125 H125      -83.3462   26.1557  -78.5534 H         1 UNK         0.0793 
    126 H126      -83.4927   24.7977  -77.4383 H         1 UNK         0.0793 
    127 H127      -82.5857   26.4742  -75.7472 H         1 UNK         0.2896 
@<TRIPOS>BOND
     1    1    2 1    
     2    1   67 1    
     3    1   68 1    
     4    1   69 1    
     5    2    3 2    
     6    2    4 am   BACKBONE|DICT|INTERRES
     7    4    5 1    
     8    4   70 1    
     9    5    6 1    
    10    5   65 1    
    11    5   71 1    
    12    6    7 1    
    13    6   72 1    
    14    6   73 1    
    15    7    8 1    
    16    8    9 1    
    17    8   74 1    
    18    8   75 1    
    19    9   10 ar   
    20    9   14 ar   
    21   10   11 ar   
    22   10   76 1    
    23   11   12 ar   
    24   11   48 1    
    25   12   13 ar   
    26   12   77 1    
    27   13   14 ar   
    28   13   15 1    
    29   14   78 1    
    30   15   16 1    
    31   15   79 1    
    32   15   80 1    
    33   16   17 1    
    34   17   18 1    
    35   17   81 1    
    36   17   82 1    
    37   18   19 1    
    38   18   22 1    
    39   18   83 1    
    40   19   20 am   BACKBONE|DICT|INTERRES
    41   19   21 2    
    42   20   84 1    
    43   20   85 1    
    44   22   23 am   BACKBONE|DICT|INTERRES
    45   22   86 1    
    46   23   24 2    
    47   23   25 1    
    48   25   26 1    
    49   25   27 1    
    50   25   87 1    
    51   26   88 1    
    52   26   89 1    
    53   26   90 1    
    54   27   28 am   BACKBONE|DICT|INTERRES
    55   27   91 1    
    56   28   29 2    
    57   28   30 1    
    58   30   31 1    
    59   30   32 1    
    60   30   92 1    
    61   31   93 1    
    62   31   94 1    
    63   31   95 1    
    64   32   33 am   BACKBONE|DICT|INTERRES
    65   32   96 1    
    66   33   34 2    
    67   33   35 1    
    68   35   36 1    
    69   35   37 1    
    70   35   97 1    
    71   36   98 1    
    72   36   99 1    
    73   36  100 1    
    74   37   38 am   BACKBONE|DICT|INTERRES
    75   37  101 1    
    76   38   39 2    
    77   38   40 1    
    78   40   41 1    
    79   40   42 1    
    80   40  102 1    
    81   41  103 1    
    82   41  104 1    
    83   41  105 1    
    84   42   43 am   BACKBONE|DICT|INTERRES
    85   42  106 1    
    86   43   44 2    
    87   43   45 1    
    88   45   46 1    
    89   45   49 1    
    90   45  107 1    
    91   46   47 1    
    92   46  108 1    
    93   46  109 1    
    94   47   48 1    
    95   48  110 1    
    96   48  111 1    
    97   49   50 am   BACKBONE|DICT|INTERRES
    98   49  112 1    
    99   50   51 2    
   100   50   52 1    
   101   52   53 1    
   102   52   54 1    
   103   52  113 1    
   104   53  114 1    
   105   53  115 1    
   106   53  116 1    
   107   54   55 am   BACKBONE|DICT|INTERRES
   108   54  117 1    
   109   55   56 2    
   110   55   57 1    
   111   57   58 1    
   112   57   59 1    
   113   57  118 1    
   114   58  119 1    
   115   58  120 1    
   116   58  121 1    
   117   59   60 am   BACKBONE|DICT|INTERRES
   118   59  122 1    
   119   60   61 2    
   120   60   62 1    
   121   62   63 1    
   122   62   64 1    
   123   62  123 1    
   124   63  124 1    
   125   63  125 1    
   126   63  126 1    
   127   64   65 am   BACKBONE|DICT|INTERRES
   128   64  127 1    
   129   65   66 2    
@<TRIPOS>SUBSTRUCTURE
     1 UNK         1 GROUP             0       ****    0 ROOT    
