@<TRIPOS>MOLECULE
3R135
127   129    1
SMALL
USER_CHARGES


@<TRIPOS>ATOM
      1 CA        -86.5582   29.0193  -72.4592 C.3       0 UNK        -0.1998 
      2 C         -85.3592   28.7951  -73.3690 C.2       0 UNK         0.4909 
      3 O         -85.4802   28.9440  -74.5859 O.2       0 UNK        -0.5240 
      4 N         -84.2048   28.4470  -72.7862 N.am      1 UNK        -0.4739 
      5 CA        -82.9658   28.1226  -73.5028 C.3       1 UNK         0.0864 
      6 C6        -81.7143   28.5624  -72.6936 C.3       11 UNK        -0.0881 
      7 S7        -80.3299   29.0655  -73.7770 S.3       11 UNK        -0.2682 
      8 C8        -79.2623   29.9744  -72.6138 C.3       11 UNK         0.0289 
      9 C9        -78.0883   29.1342  -72.1276 C.ar      11 UNK        -0.0687 
     10 C10       -78.3036   27.9969  -71.3450 C.ar      11 UNK        -0.0823 
     11 C11       -77.2269   27.2379  -70.8805 C.ar      11 UNK        -0.0830 
     12 C12       -75.9231   27.6420  -71.1829 C.ar      11 UNK        -0.1021 
     13 C13       -75.6844   28.7797  -71.9602 C.ar      11 UNK        -0.0753 
     14 C14       -76.7788   29.5142  -72.4375 C.ar      11 UNK        -0.0933 
     15 C15       -74.2350   29.1560  -72.2752 C.3       11 UNK         0.0166 
     16 S16       -73.9470   30.9294  -72.6127 S.3       11 UNK        -0.2615 
     17 C17       -74.2462   31.0195  -74.4173 C.3       11 UNK        -0.0865 
     18 CA        -72.9528   31.2302  -75.2498 C.3       10 UNK         0.0862 
     19 C         -72.4596   32.7073  -75.1952 C.2       10 UNK         0.5551 
     20 N         -71.2767   32.9974  -74.6666 N.am      10 UNK        -0.7319 
     21 O         -73.1621   33.6046  -75.6544 O.2       10 UNK        -0.5018 
     22 N         -71.9409   30.2136  -74.9237 N.am      10 UNK        -0.4509 
     23 C         -70.8918   29.8832  -75.6849 C.2       10 UNK         0.4899 
     24 O         -70.6572   30.3599  -76.7951 O.2       10 UNK        -0.4839 
     25 CA        -69.9553   28.8261  -75.0960 C.3       9 UNK         0.0222 
     26 CB        -69.3498   29.2974  -73.7548 C.3       9 UNK        -0.1966 
     27 N         -70.6843   27.5660  -74.9534 N.am      9 UNK        -0.4218 
     28 C         -70.1310   26.3772  -74.6753 C.2       9 UNK         0.5020 
     29 O         -68.9304   26.2127  -74.4527 O.2       9 UNK        -0.5274 
     30 CA        -71.0630   25.1514  -74.6475 C.3       8 UNK         0.0270 
     31 CB        -71.5403   24.8779  -73.2124 C.3       8 UNK        -0.1976 
     32 N         -72.2185   25.2699  -75.5439 N.am      8 UNK        -0.4313 
     33 C         -72.1281   25.3012  -76.8839 C.2       8 UNK         0.5041 
     34 O         -71.0601   25.1905  -77.4883 O.2       8 UNK        -0.5577 
     35 CA        -73.4174   25.4814  -77.7108 C.3       7 UNK         0.0284 
     36 CB        -73.7597   24.1771  -78.4509 C.3       7 UNK        -0.1958 
     37 N         -74.5913   25.9228  -76.9531 N.am      7 UNK        -0.4454 
     38 C         -74.7069   27.0860  -76.2981 C.2       7 UNK         0.5089 
     39 O         -73.8279   27.9470  -76.2729 O.2       7 UNK        -0.5125 
     40 CA        -75.9908   27.2904  -75.4744 C.3       6 UNK         0.0408 
     41 CB        -77.1050   27.9023  -76.3344 C.3       6 UNK        -0.1791 
     42 N         -76.4791   26.0659  -74.8329 N.am      6 UNK        -0.4762 
     43 C         -75.7775   25.3216  -73.9635 C.2       6 UNK         0.5007 
     44 O         -74.6212   25.5766  -73.6268 O.2       6 UNK        -0.5032 
     45 CA        -76.4514   24.0385  -73.4459 C.3       5 UNK         0.0783 
     46 C46       -77.4916   24.3122  -72.3309 C.3       11 UNK        -0.0857 
     47 S47       -76.6927   24.4942  -70.7003 S.3       11 UNK        -0.2512 
     48 C48       -77.4808   25.9969  -70.0332 C.3       11 UNK         0.0225 
     49 N         -77.0284   23.2927  -74.5644 N.am      5 UNK        -0.4615 
     50 C         -76.3238   22.4887  -75.3728 C.2       4 UNK         0.5053 
     51 O         -75.1316   22.2296  -75.2108 O.2       4 UNK        -0.5105 
     52 CA        -77.0657   21.8689  -76.5704 C.3       4 UNK         0.0263 
     53 CB        -77.6017   20.4751  -76.2063 C.3       4 UNK        -0.1981 
     54 N         -78.1676   22.6965  -77.0673 N.am      4 UNK        -0.4224 
     55 C         -78.0152   23.8943  -77.6492 C.2       3 UNK         0.4895 
     56 O         -76.9258   24.4296  -77.8459 O.2       3 UNK        -0.5091 
     57 CA        -79.3020   24.6449  -78.0259 C.3       3 UNK         0.0250 
     58 CB        -79.8240   24.1725  -79.3922 C.3       3 UNK        -0.1996 
     59 N         -80.3672   24.5325  -77.0221 N.am      3 UNK        -0.4254 
     60 C         -80.2566   24.9338  -75.7485 C.2       2 UNK         0.5004 
     61 O         -79.2189   25.3778  -75.2518 O.2       2 UNK        -0.5226 
     62 CA        -81.5037   24.8307  -74.8726 C.3       2 UNK         0.0269 
     63 CB        -81.2915   23.8367  -73.7156 C.3       2 UNK        -0.1926 
     64 N         -81.7606   26.1693  -74.3581 N.am      2 UNK        -0.4687 
     65 C         -82.9305   26.6291  -73.9073 C.2       1 UNK         0.5165 
     66 O         -83.9400   25.9249  -73.8129 O.2       1 UNK        -0.5079 
     67 H67       -87.3586   28.3263  -72.7169 H         1 UNK         0.0900 
     68 H68       -86.9348   30.0349  -72.5777 H         1 UNK         0.0900 
     69 H69       -86.3071   28.8715  -71.4090 H         1 UNK         0.0900 
     70 H70       -84.1820   28.3020  -71.7868 H         1 UNK         0.2959 
     71 H71       -82.9724   28.6847  -74.4398 H         1 UNK         0.1079 
     72 H72       -81.9651   29.4264  -72.0757 H         1 UNK         0.0837 
     73 H73       -81.3921   27.7853  -71.9989 H         1 UNK         0.0837 
     74 H74       -79.8368   30.3253  -71.7558 H         1 UNK         0.0685 
     75 H75       -78.9026   30.8718  -73.1194 H         1 UNK         0.0685 
     76 H76       -79.3124   27.7026  -71.0968 H         1 UNK         0.1434 
     77 H77       -75.0890   27.0554  -70.8220 H         1 UNK         0.1329 
     78 H78       -76.6206   30.3921  -73.0457 H         1 UNK         0.1335 
     79 H79       -73.8826   28.5526  -73.1132 H         1 UNK         0.0680 
     80 H80       -73.6068   28.8865  -71.4248 H         1 UNK         0.0680 
     81 H81       -74.9695   31.8135  -74.6132 H         1 UNK         0.1032 
     82 H82       -74.7367   30.1049  -74.7492 H         1 UNK         0.1032 
     83 H83       -73.2271   31.0647  -76.2936 H         1 UNK         0.0461 
     84 H84       -70.6983   32.2680  -74.2838 H         1 UNK         0.3453 
     85 H85       -70.9669   33.9560  -74.6419 H         1 UNK         0.3453 
     86 H86       -72.0370   29.7917  -74.0126 H         1 UNK         0.2984 
     87 H87       -69.1426   28.6714  -75.8090 H         1 UNK         0.0554 
     88 H88       -68.5510   28.6353  -73.4216 H         1 UNK         0.0847 
     89 H89       -70.0944   29.3402  -72.9594 H         1 UNK         0.0847 
     90 H90       -68.9129   30.2923  -73.8506 H         1 UNK         0.0847 
     91 H91       -71.6706   27.5981  -75.1864 H         1 UNK         0.3141 
     92 H92       -70.4793   24.2892  -74.9773 H         1 UNK         0.0743 
     93 H93       -70.6940   24.6923  -72.5498 H         1 UNK         0.0784 
     94 H94       -72.1866   24.0009  -73.1669 H         1 UNK         0.0784 
     95 H95       -72.0928   25.7244  -72.8026 H         1 UNK         0.0784 
     96 H96       -73.1287   25.3644  -75.1044 H         1 UNK         0.3213 
     97 H97       -73.2055   26.2503  -78.4565 H         1 UNK         0.0855 
     98 H98       -74.0532   23.3876  -77.7579 H         1 UNK         0.0814 
     99 H99       -72.9060   23.8104  -79.0225 H         1 UNK         0.0814 
    100 H100      -74.5762   24.3250  -79.1577 H         1 UNK         0.0814 
    101 H101      -75.3989   25.3054  -76.9742 H         1 UNK         0.3105 
    102 H102      -75.7579   27.9938  -74.6766 H         1 UNK         0.0547 
    103 H103      -77.9923   28.1155  -75.7377 H         1 UNK         0.0837 
    104 H104      -76.7807   28.8423  -76.7825 H         1 UNK         0.0837 
    105 H105      -77.3981   27.2355  -77.1453 H         1 UNK         0.0837 
    106 H106      -77.4370   25.7923  -75.0458 H         1 UNK         0.3020 
    107 H107      -75.6597   23.4187  -73.0167 H         1 UNK         0.1245 
    108 H108      -78.1771   23.4678  -72.2453 H         1 UNK         0.0781 
    109 H109      -78.1149   25.1774  -72.5652 H         1 UNK         0.0781 
    110 H110      -78.5503   25.8093  -69.9250 H         1 UNK         0.0836 
    111 H111      -77.0987   26.1759  -69.0274 H         1 UNK         0.0836 
    112 H112      -77.9851   23.5124  -74.8042 H         1 UNK         0.3022 
    113 H113      -76.3412   21.7567  -77.3801 H         1 UNK         0.0747 
    114 H114      -78.0566   19.9866  -77.0683 H         1 UNK         0.0793 
    115 H115      -76.7965   19.8270  -75.8571 H         1 UNK         0.0793 
    116 H116      -78.3485   20.5231  -75.4127 H         1 UNK         0.0793 
    117 H117      -79.1034   22.3382  -76.9438 H         1 UNK         0.3047 
    118 H118      -79.0464   25.7030  -78.1101 H         1 UNK         0.0822 
    119 H119      -80.6726   24.7721  -79.7221 H         1 UNK         0.0807 
    120 H120      -80.1387   23.1285  -79.3686 H         1 UNK         0.0807 
    121 H121      -79.0509   24.2626  -80.1570 H         1 UNK         0.0807 
    122 H122      -81.2556   24.1791  -77.3481 H         1 UNK         0.2946 
    123 H123      -82.3521   24.5055  -75.4792 H         1 UNK         0.1144 
    124 H124      -82.1951   23.7280  -73.1157 H         1 UNK         0.0793 
    125 H125      -80.4891   24.1582  -73.0512 H         1 UNK         0.0793 
    126 H126      -81.0318   22.8463  -74.0914 H         1 UNK         0.0793 
    127 H127      -80.9685   26.8017  -74.4038 H         1 UNK         0.2896 
@<TRIPOS>BOND
     1    1    2 1    
     2    1   67 1    
     3    1   68 1    
     4    1   69 1    
     5    2    3 2    
     6    2    4 am   BACKBONE|DICT|INTERRES
     7    4    5 1    
     8    4   70 1    
     9    5    6 1    
    10    5   65 1    
    11    5   71 1    
    12    6    7 1    
    13    6   72 1    
    14    6   73 1    
    15    7    8 1    
    16    8    9 1    
    17    8   74 1    
    18    8   75 1    
    19    9   10 ar   
    20    9   14 ar   
    21   10   11 ar   
    22   10   76 1    
    23   11   12 ar   
    24   11   48 1    
    25   12   13 ar   
    26   12   77 1    
    27   13   14 ar   
    28   13   15 1    
    29   14   78 1    
    30   15   16 1    
    31   15   79 1    
    32   15   80 1    
    33   16   17 1    
    34   17   18 1    
    35   17   81 1    
    36   17   82 1    
    37   18   19 1    
    38   18   22 1    
    39   18   83 1    
    40   19   20 am   BACKBONE|DICT|INTERRES
    41   19   21 2    
    42   20   84 1    
    43   20   85 1    
    44   22   23 am   BACKBONE|DICT|INTERRES
    45   22   86 1    
    46   23   24 2    
    47   23   25 1    
    48   25   26 1    
    49   25   27 1    
    50   25   87 1    
    51   26   88 1    
    52   26   89 1    
    53   26   90 1    
    54   27   28 am   BACKBONE|DICT|INTERRES
    55   27   91 1    
    56   28   29 2    
    57   28   30 1    
    58   30   31 1    
    59   30   32 1    
    60   30   92 1    
    61   31   93 1    
    62   31   94 1    
    63   31   95 1    
    64   32   33 am   BACKBONE|DICT|INTERRES
    65   32   96 1    
    66   33   34 2    
    67   33   35 1    
    68   35   36 1    
    69   35   37 1    
    70   35   97 1    
    71   36   98 1    
    72   36   99 1    
    73   36  100 1    
    74   37   38 am   BACKBONE|DICT|INTERRES
    75   37  101 1    
    76   38   39 2    
    77   38   40 1    
    78   40   41 1    
    79   40   42 1    
    80   40  102 1    
    81   41  103 1    
    82   41  104 1    
    83   41  105 1    
    84   42   43 am   BACKBONE|DICT|INTERRES
    85   42  106 1    
    86   43   44 2    
    87   43   45 1    
    88   45   46 1    
    89   45   49 1    
    90   45  107 1    
    91   46   47 1    
    92   46  108 1    
    93   46  109 1    
    94   47   48 1    
    95   48  110 1    
    96   48  111 1    
    97   49   50 am   BACKBONE|DICT|INTERRES
    98   49  112 1    
    99   50   51 2    
   100   50   52 1    
   101   52   53 1    
   102   52   54 1    
   103   52  113 1    
   104   53  114 1    
   105   53  115 1    
   106   53  116 1    
   107   54   55 am   BACKBONE|DICT|INTERRES
   108   54  117 1    
   109   55   56 2    
   110   55   57 1    
   111   57   58 1    
   112   57   59 1    
   113   57  118 1    
   114   58  119 1    
   115   58  120 1    
   116   58  121 1    
   117   59   60 am   BACKBONE|DICT|INTERRES
   118   59  122 1    
   119   60   61 2    
   120   60   62 1    
   121   62   63 1    
   122   62   64 1    
   123   62  123 1    
   124   63  124 1    
   125   63  125 1    
   126   63  126 1    
   127   64   65 am   BACKBONE|DICT|INTERRES
   128   64  127 1    
   129   65   66 2    
@<TRIPOS>SUBSTRUCTURE
     1 UNK         1 GROUP             0       ****    0 ROOT    
