@<TRIPOS>MOLECULE
3R135
127   129    1
SMALL
USER_CHARGES


@<TRIPOS>ATOM
      1 CA        -83.5172   24.1642  -72.5944 C.3       0 UNK        -0.1998 
      2 C         -83.7587   25.6371  -72.2725 C.2       0 UNK         0.4909 
      3 O         -84.8720   25.9766  -71.8754 O.2       0 UNK        -0.5240 
      4 N         -82.7929   26.5598  -72.4165 N.am      1 UNK        -0.4739 
      5 CA        -81.4031   26.4338  -72.8838 C.3       1 UNK         0.0864 
      6 C6        -80.4324   25.7899  -71.8517 C.3       11 UNK        -0.0881 
      7 S7        -80.4266   26.6309  -70.2303 S.3       11 UNK        -0.2682 
      8 C8        -78.6341   26.7776  -69.8793 C.3       11 UNK         0.0289 
      9 C9        -77.9086   27.9558  -70.5379 C.ar      11 UNK        -0.0687 
     10 C10       -78.4728   28.7101  -71.5730 C.ar      11 UNK        -0.0823 
     11 C11       -77.7770   29.7720  -72.1521 C.ar      11 UNK        -0.0830 
     12 C12       -76.5123   30.1108  -71.6683 C.ar      11 UNK        -0.1021 
     13 C13       -75.9293   29.3747  -70.6334 C.ar      11 UNK        -0.0753 
     14 C14       -76.6282   28.2935  -70.0835 C.ar      11 UNK        -0.0933 
     15 C15       -74.5614   29.7630  -70.0871 C.3       11 UNK         0.0166 
     16 S16       -73.2228   29.4177  -71.2716 S.3       11 UNK        -0.2615 
     17 C17       -72.8945   31.0871  -71.9444 C.3       11 UNK        -0.0865 
     18 CA        -71.7748   31.1202  -73.0171 C.3       10 UNK         0.0862 
     19 C         -70.3628   30.8759  -72.4024 C.2       10 UNK         0.5551 
     20 N         -69.6473   29.8144  -72.7575 N.am      10 UNK        -0.7319 
     21 O         -69.9036   31.6792  -71.5939 O.2       10 UNK        -0.5018 
     22 N         -72.1145   30.2665  -74.1630 N.am      10 UNK        -0.4509 
     23 C         -71.5506   30.3346  -75.3753 C.2       10 UNK         0.4899 
     24 O         -70.7720   31.2266  -75.7161 O.2       10 UNK        -0.4839 
     25 CA        -71.9145   29.2101  -76.3673 C.3       9 UNK         0.0222 
     26 CB        -70.8151   28.9698  -77.4226 C.3       9 UNK        -0.1966 
     27 N         -72.2851   27.9455  -75.7172 N.am      9 UNK        -0.4218 
     28 C         -71.5407   27.2095  -74.8762 C.2       9 UNK         0.5020 
     29 O         -70.4100   27.5236  -74.5008 O.2       9 UNK        -0.5274 
     30 CA        -72.1734   25.9151  -74.3410 C.3       8 UNK         0.0270 
     31 CB        -73.0162   26.2064  -73.0899 C.3       8 UNK        -0.1976 
     32 N         -72.9904   25.2211  -75.3404 N.am      8 UNK        -0.4313 
     33 C         -72.4838   24.5863  -76.4083 C.2       8 UNK         0.5041 
     34 O         -71.2776   24.4930  -76.6412 O.2       8 UNK        -0.5577 
     35 CA        -73.4820   23.9386  -77.3816 C.3       7 UNK         0.0284 
     36 CB        -73.9830   22.5956  -76.8270 C.3       7 UNK        -0.1958 
     37 N         -74.6193   24.8054  -77.6963 N.am      7 UNK        -0.4454 
     38 C         -74.5352   25.9439  -78.3999 C.2       7 UNK         0.5089 
     39 O         -73.4932   26.3668  -78.9011 O.2       7 UNK        -0.5125 
     40 CA        -75.8282   26.7661  -78.5548 C.3       6 UNK         0.0408 
     41 CB        -76.6930   26.2168  -79.6998 C.3       6 UNK        -0.1791 
     42 N         -76.6233   26.8361  -77.3261 N.am      6 UNK        -0.4762 
     43 C         -76.1958   27.3684  -76.1702 C.2       6 UNK         0.5007 
     44 O         -75.0796   27.8620  -76.0113 O.2       6 UNK        -0.5032 
     45 CA        -77.1604   27.2711  -74.9726 C.3       5 UNK         0.0783 
     46 C46       -78.3035   28.3158  -75.0670 C.3       11 UNK        -0.0857 
     47 S47       -77.7179   30.0407  -74.9069 S.3       11 UNK        -0.2512 
     48 C48       -78.3969   30.5553  -73.2982 C.3       11 UNK         0.0225 
     49 N         -77.6641   25.8974  -74.8451 N.am      5 UNK        -0.4615 
     50 C         -76.8929   24.8364  -74.5571 C.2       4 UNK         0.5053 
     51 O         -75.7000   24.9185  -74.2698 O.2       4 UNK        -0.5105 
     52 CA        -77.5298   23.4425  -74.6745 C.3       4 UNK         0.0263 
     53 CB        -78.1109   22.9742  -73.3322 C.3       4 UNK        -0.1981 
     54 N         -78.5501   23.3843  -75.7242 N.am      4 UNK        -0.4224 
     55 C         -78.2567   23.3781  -77.0338 C.2       3 UNK         0.4895 
     56 O         -77.1065   23.3823  -77.4692 O.2       3 UNK        -0.5091 
     57 CA        -79.4247   23.4101  -78.0345 C.3       3 UNK         0.0250 
     58 CB        -79.8541   21.9814  -78.4027 C.3       3 UNK        -0.1996 
     59 N         -80.5889   24.1635  -77.5655 N.am      3 UNK        -0.4254 
     60 C         -80.5904   25.4667  -77.2531 C.2       2 UNK         0.5004 
     61 O         -79.5941   26.1872  -77.3381 O.2       2 UNK        -0.5226 
     62 CA        -81.9062   26.0597  -76.7050 C.3       2 UNK         0.0269 
     63 CB        -83.1279   25.1241  -76.8578 C.3       2 UNK        -0.1926 
     64 N         -81.7929   26.4939  -75.3044 N.am      2 UNK        -0.4687 
     65 C         -81.3173   25.7756  -74.2753 C.2       1 UNK         0.5165 
     66 O         -80.8629   24.6359  -74.3862 O.2       1 UNK        -0.5079 
     67 H67       -84.2643   23.5439  -72.0999 H         1 UNK         0.0900 
     68 H68       -82.5434   23.8172  -72.2607 H         1 UNK         0.0900 
     69 H69       -83.6019   23.9903  -73.6666 H         1 UNK         0.0900 
     70 H70       -83.0474   27.5070  -72.1737 H         1 UNK         0.2959 
     71 H71       -81.0697   27.4595  -73.0355 H         1 UNK         0.1079 
     72 H72       -80.6613   24.7395  -71.6786 H         1 UNK         0.0837 
     73 H73       -79.4167   25.8087  -72.2511 H         1 UNK         0.0837 
     74 H74       -78.5242   26.8678  -68.7975 H         1 UNK         0.0685 
     75 H75       -78.1350   25.8485  -70.1586 H         1 UNK         0.0685 
     76 H76       -79.4593   28.4835  -71.9379 H         1 UNK         0.1434 
     77 H77       -75.9835   30.9455  -72.1042 H         1 UNK         0.1329 
     78 H78       -76.1800   27.7203  -69.2831 H         1 UNK         0.1335 
     79 H79       -74.5632   30.8187  -69.8123 H         1 UNK         0.0680 
     80 H80       -74.3515   29.2145  -69.1676 H         1 UNK         0.0680 
     81 H81       -73.8136   31.4779  -72.3800 H         1 UNK         0.1032 
     82 H82       -72.6516   31.7610  -71.1204 H         1 UNK         0.1032 
     83 H83       -71.7431   32.1434  -73.3968 H         1 UNK         0.0461 
     84 H84       -68.7353   29.6793  -72.3520 H         1 UNK         0.3453 
     85 H85       -70.0104   29.1319  -73.4152 H         1 UNK         0.3453 
     86 H86       -72.7324   29.4939  -73.9628 H         1 UNK         0.2984 
     87 H87       -72.8086   29.5485  -76.8927 H         1 UNK         0.0554 
     88 H88       -71.1036   28.1831  -78.1202 H         1 UNK         0.0847 
     89 H89       -69.8700   28.6799  -76.9621 H         1 UNK         0.0847 
     90 H90       -70.6293   29.8697  -78.0100 H         1 UNK         0.0847 
     91 H91       -73.2433   27.6472  -75.8943 H         1 UNK         0.3141 
     92 H92       -71.3600   25.2473  -74.0491 H         1 UNK         0.0743 
     93 H93       -72.4114   26.6816  -72.3166 H         1 UNK         0.0784 
     94 H94       -73.8526   26.8720  -73.3089 H         1 UNK         0.0784 
     95 H95       -73.4226   25.2897  -72.6625 H         1 UNK         0.0784 
     96 H96       -73.9946   25.2074  -75.1796 H         1 UNK         0.3213 
     97 H97       -72.9507   23.7392  -78.3149 H         1 UNK         0.0855 
     98 H98       -74.5369   22.7244  -75.8972 H         1 UNK         0.0814 
     99 H99       -73.1488   21.9242  -76.6191 H         1 UNK         0.0814 
    100 H100      -74.6353   22.0900  -77.5394 H         1 UNK         0.0814 
    101 H101      -75.5374   24.4822  -77.4018 H         1 UNK         0.3105 
    102 H102      -75.5398   27.7877  -78.8109 H         1 UNK         0.0547 
    103 H103      -77.5875   26.8219  -79.8488 H         1 UNK         0.0837 
    104 H104      -76.1395   26.2184  -80.6396 H         1 UNK         0.0837 
    105 H105      -77.0099   25.1911  -79.5121 H         1 UNK         0.0837 
    106 H106      -77.5698   26.4691  -77.3668 H         1 UNK         0.3020 
    107 H107      -76.5816   27.4864  -74.0703 H         1 UNK         0.1245 
    108 H108      -79.0495   28.1211  -74.2988 H         1 UNK         0.0781 
    109 H109      -78.8347   28.2336  -76.0155 H         1 UNK         0.0781 
    110 H110      -78.2030   31.6198  -73.1580 H         1 UNK         0.0836 
    111 H111      -79.4823   30.4445  -73.3077 H         1 UNK         0.0836 
    112 H112      -78.6119   25.7296  -75.1511 H         1 UNK         0.3022 
    113 H113      -76.7334   22.7444  -74.9400 H         1 UNK         0.0747 
    114 H114      -78.4754   21.9490  -73.3968 H         1 UNK         0.0793 
    115 H115      -78.9369   23.5994  -73.0021 H         1 UNK         0.0793 
    116 H116      -77.3512   22.9991  -72.5496 H         1 UNK         0.0793 
    117 H117      -79.5183   23.4572  -75.4280 H         1 UNK         0.3047 
    118 H118      -79.0627   23.9006  -78.9402 H         1 UNK         0.0822 
    119 H119      -79.0076   21.4048  -78.7789 H         1 UNK         0.0807 
    120 H120      -80.6142   21.9835  -79.1843 H         1 UNK         0.0807 
    121 H121      -80.2567   21.4453  -77.5422 H         1 UNK         0.0807 
    122 H122      -81.4444   23.6430  -77.4371 H         1 UNK         0.2946 
    123 H123      -82.0971   26.9546  -77.3001 H         1 UNK         0.1144 
    124 H124      -83.2736   24.8262  -77.8973 H         1 UNK         0.0793 
    125 H125      -84.0429   25.6270  -76.5442 H         1 UNK         0.0793 
    126 H126      -83.0338   24.2183  -76.2574 H         1 UNK         0.0793 
    127 H127      -82.1428   27.4230  -75.1141 H         1 UNK         0.2896 
@<TRIPOS>BOND
     1    1    2 1    
     2    1   67 1    
     3    1   68 1    
     4    1   69 1    
     5    2    3 2    
     6    2    4 am   BACKBONE|DICT|INTERRES
     7    4    5 1    
     8    4   70 1    
     9    5    6 1    
    10    5   65 1    
    11    5   71 1    
    12    6    7 1    
    13    6   72 1    
    14    6   73 1    
    15    7    8 1    
    16    8    9 1    
    17    8   74 1    
    18    8   75 1    
    19    9   10 ar   
    20    9   14 ar   
    21   10   11 ar   
    22   10   76 1    
    23   11   12 ar   
    24   11   48 1    
    25   12   13 ar   
    26   12   77 1    
    27   13   14 ar   
    28   13   15 1    
    29   14   78 1    
    30   15   16 1    
    31   15   79 1    
    32   15   80 1    
    33   16   17 1    
    34   17   18 1    
    35   17   81 1    
    36   17   82 1    
    37   18   19 1    
    38   18   22 1    
    39   18   83 1    
    40   19   20 am   BACKBONE|DICT|INTERRES
    41   19   21 2    
    42   20   84 1    
    43   20   85 1    
    44   22   23 am   BACKBONE|DICT|INTERRES
    45   22   86 1    
    46   23   24 2    
    47   23   25 1    
    48   25   26 1    
    49   25   27 1    
    50   25   87 1    
    51   26   88 1    
    52   26   89 1    
    53   26   90 1    
    54   27   28 am   BACKBONE|DICT|INTERRES
    55   27   91 1    
    56   28   29 2    
    57   28   30 1    
    58   30   31 1    
    59   30   32 1    
    60   30   92 1    
    61   31   93 1    
    62   31   94 1    
    63   31   95 1    
    64   32   33 am   BACKBONE|DICT|INTERRES
    65   32   96 1    
    66   33   34 2    
    67   33   35 1    
    68   35   36 1    
    69   35   37 1    
    70   35   97 1    
    71   36   98 1    
    72   36   99 1    
    73   36  100 1    
    74   37   38 am   BACKBONE|DICT|INTERRES
    75   37  101 1    
    76   38   39 2    
    77   38   40 1    
    78   40   41 1    
    79   40   42 1    
    80   40  102 1    
    81   41  103 1    
    82   41  104 1    
    83   41  105 1    
    84   42   43 am   BACKBONE|DICT|INTERRES
    85   42  106 1    
    86   43   44 2    
    87   43   45 1    
    88   45   46 1    
    89   45   49 1    
    90   45  107 1    
    91   46   47 1    
    92   46  108 1    
    93   46  109 1    
    94   47   48 1    
    95   48  110 1    
    96   48  111 1    
    97   49   50 am   BACKBONE|DICT|INTERRES
    98   49  112 1    
    99   50   51 2    
   100   50   52 1    
   101   52   53 1    
   102   52   54 1    
   103   52  113 1    
   104   53  114 1    
   105   53  115 1    
   106   53  116 1    
   107   54   55 am   BACKBONE|DICT|INTERRES
   108   54  117 1    
   109   55   56 2    
   110   55   57 1    
   111   57   58 1    
   112   57   59 1    
   113   57  118 1    
   114   58  119 1    
   115   58  120 1    
   116   58  121 1    
   117   59   60 am   BACKBONE|DICT|INTERRES
   118   59  122 1    
   119   60   61 2    
   120   60   62 1    
   121   62   63 1    
   122   62   64 1    
   123   62  123 1    
   124   63  124 1    
   125   63  125 1    
   126   63  126 1    
   127   64   65 am   BACKBONE|DICT|INTERRES
   128   64  127 1    
   129   65   66 2    
@<TRIPOS>SUBSTRUCTURE
     1 UNK         1 GROUP             0       ****    0 ROOT    
