@<TRIPOS>MOLECULE
3R135
127   129    1
SMALL
USER_CHARGES


@<TRIPOS>ATOM
      1 CA        -79.8033   29.4790  -80.6938 C.3       0 UNK        -0.1998 
      2 C         -79.3242   28.7040  -79.4755 C.2       0 UNK         0.4909 
      3 O         -79.0966   27.4976  -79.5707 O.2       0 UNK        -0.5240 
      4 N         -79.1671   29.3897  -78.3354 N.am      1 UNK        -0.4739 
      5 CA        -78.7422   28.8045  -77.0606 C.3       1 UNK         0.0864 
      6 C6        -78.3295   29.9093  -76.0571 C.3       11 UNK        -0.0881 
      7 S7        -77.2902   29.2544  -74.7138 S.3       11 UNK        -0.2682 
      8 C8        -78.2437   29.7223  -73.2398 C.3       11 UNK         0.0289 
      9 C9        -77.7482   28.9422  -72.0345 C.ar      11 UNK        -0.0687 
     10 C10       -78.4275   27.7964  -71.6186 C.ar      11 UNK        -0.0823 
     11 C11       -77.9418   27.0226  -70.5613 C.ar      11 UNK        -0.0830 
     12 C12       -76.7740   27.4193  -69.8998 C.ar      11 UNK        -0.1021 
     13 C13       -76.0866   28.5681  -70.3071 C.ar      11 UNK        -0.0753 
     14 C14       -76.5872   29.3332  -71.3643 C.ar      11 UNK        -0.0933 
     15 C15       -74.7824   28.9690  -69.6386 C.3       11 UNK         0.0166 
     16 S16       -73.3730   28.1433  -70.4466 S.3       11 UNK        -0.2615 
     17 C17       -72.0835   29.4411  -70.3924 C.3       11 UNK        -0.0865 
     18 CA        -71.7615   30.0588  -71.7822 C.3       10 UNK         0.0862 
     19 C         -70.8943   29.1123  -72.6671 C.2       10 UNK         0.5551 
     20 N         -71.3136   28.7363  -73.8696 N.am      10 UNK        -0.7319 
     21 O         -69.8026   28.7256  -72.2562 O.2       10 UNK        -0.5018 
     22 N         -72.9733   30.5780  -72.4322 N.am      10 UNK        -0.4509 
     23 C         -73.0031   31.5390  -73.3612 C.2       10 UNK         0.4899 
     24 O         -72.0202   32.1846  -73.7303 O.2       10 UNK        -0.4839 
     25 CA        -74.3794   31.8216  -73.9874 C.3       9 UNK         0.0222 
     26 CB        -74.8328   33.2621  -73.6999 C.3       9 UNK        -0.1966 
     27 N         -74.4134   31.5735  -75.4310 N.am      9 UNK        -0.4218 
     28 C         -74.1116   30.4085  -76.0193 C.2       9 UNK         0.5020 
     29 O         -73.6778   29.4182  -75.4230 O.2       9 UNK        -0.5274 
     30 CA        -74.3428   30.3254  -77.5304 C.3       8 UNK         0.0270 
     31 CB        -73.1378   30.8765  -78.3126 C.3       8 UNK        -0.1976 
     32 N         -74.5517   28.9209  -77.8603 N.am      8 UNK        -0.4313 
     33 C         -75.2845   28.4422  -78.8699 C.2       8 UNK         0.5041 
     34 O         -75.8368   29.1607  -79.7039 O.2       8 UNK        -0.5577 
     35 CA        -75.4185   26.9100  -78.9903 C.3       7 UNK         0.0284 
     36 CB        -74.7866   26.4148  -80.3026 C.3       7 UNK        -0.1958 
     37 N         -74.8132   26.1788  -77.8701 N.am      7 UNK        -0.4454 
     38 C         -75.4217   25.9281  -76.7045 C.2       7 UNK         0.5089 
     39 O         -76.5770   26.2644  -76.4433 O.2       7 UNK        -0.5125 
     40 CA        -74.5815   25.2069  -75.6451 C.3       6 UNK         0.0408 
     41 CB        -73.6135   26.1970  -74.9654 C.3       6 UNK        -0.1791 
     42 N         -75.4709   24.6104  -74.6513 N.am      6 UNK        -0.4762 
     43 C         -75.0970   23.7500  -73.6972 C.2       6 UNK         0.5007 
     44 O         -73.9640   23.2727  -73.6152 O.2       6 UNK        -0.5032 
     45 CA        -76.1535   23.3461  -72.6594 C.3       5 UNK         0.0783 
     46 C46       -76.9973   24.5481  -72.1635 C.3       11 UNK        -0.0857 
     47 S47       -77.6839   24.2342  -70.5025 S.3       11 UNK        -0.2512 
     48 C48       -78.6648   25.7388  -70.1717 C.3       11 UNK         0.0225 
     49 N         -76.9686   22.2866  -73.2501 N.am      5 UNK        -0.4615 
     50 C         -76.9369   21.0003  -72.8775 C.2       4 UNK         0.5053 
     51 O         -76.2767   20.5886  -71.9223 O.2       4 UNK        -0.5105 
     52 CA        -77.7238   19.9748  -73.7226 C.3       4 UNK         0.0263 
     53 CB        -78.5848   19.0390  -72.8466 C.3       4 UNK        -0.1981 
     54 N         -78.5033   20.5527  -74.8271 N.am      4 UNK        -0.4224 
     55 C         -79.6009   21.3167  -74.7447 C.2       3 UNK         0.4895 
     56 O         -80.1776   21.6070  -73.6946 O.2       3 UNK        -0.5091 
     57 CA        -80.1360   21.8609  -76.0795 C.3       3 UNK         0.0250 
     58 CB        -81.3346   21.0276  -76.5615 C.3       3 UNK        -0.1996 
     59 N         -80.5323   23.2663  -75.9743 N.am      3 UNK        -0.4254 
     60 C         -79.7066   24.2748  -75.6636 C.2       2 UNK         0.5004 
     61 O         -78.4981   24.1395  -75.4489 O.2       2 UNK        -0.5226 
     62 CA        -80.3582   25.6535  -75.5227 C.3       2 UNK         0.0269 
     63 CB        -80.7485   25.9111  -74.0576 C.3       2 UNK        -0.1926 
     64 N         -79.4431   26.6897  -76.0007 N.am      2 UNK        -0.4687 
     65 C         -79.8348   27.8717  -76.4927 C.2       1 UNK         0.5165 
     66 O         -81.0116   28.2450  -76.5109 O.2       1 UNK        -0.5079 
     67 H67       -79.9893   30.5279  -80.4636 H         1 UNK         0.0900 
     68 H68       -80.7277   29.0460  -81.0751 H         1 UNK         0.0900 
     69 H69       -79.0532   29.4333  -81.4830 H         1 UNK         0.0900 
     70 H70       -79.4031   30.3711  -78.3120 H         1 UNK         0.2959 
     71 H71       -77.8611   28.2049  -77.2858 H         1 UNK         0.1079 
     72 H72       -77.7347   30.6701  -76.5652 H         1 UNK         0.0837 
     73 H73       -79.2026   30.4291  -75.6577 H         1 UNK         0.0837 
     74 H74       -78.1457   30.7948  -73.0652 H         1 UNK         0.0685 
     75 H75       -79.3036   29.5243  -73.4085 H         1 UNK         0.0685 
     76 H76       -79.3255   27.4990  -72.1376 H         1 UNK         0.1434 
     77 H77       -76.3823   26.8144  -69.0932 H         1 UNK         0.1329 
     78 H78       -76.0588   30.2181  -71.6857 H         1 UNK         0.1335 
     79 H79       -74.6704   30.0533  -69.6844 H         1 UNK         0.0680 
     80 H80       -74.7982   28.7049  -68.5801 H         1 UNK         0.0680 
     81 H81       -71.1848   29.0150  -69.9422 H         1 UNK         0.1032 
     82 H82       -72.3880   30.2328  -69.7070 H         1 UNK         0.1032 
     83 H83       -71.1174   30.9190  -71.5897 H         1 UNK         0.0461 
     84 H84       -70.7281   28.1326  -74.4224 H         1 UNK         0.3453 
     85 H85       -72.2047   29.0514  -74.2425 H         1 UNK         0.3453 
     86 H86       -73.8147   30.0551  -72.2391 H         1 UNK         0.2984 
     87 H87       -75.1115   31.1489  -73.5395 H         1 UNK         0.0554 
     88 H88       -74.8308   33.4645  -72.6279 H         1 UNK         0.0847 
     89 H89       -75.8467   33.4399  -74.0589 H         1 UNK         0.0847 
     90 H90       -74.1747   33.9941  -74.1701 H         1 UNK         0.0847 
     91 H91       -74.7244   32.3399  -76.0097 H         1 UNK         0.3141 
     92 H92       -75.2415   30.8942  -77.7792 H         1 UNK         0.0743 
     93 H93       -72.9620   31.9263  -78.0749 H         1 UNK         0.0784 
     94 H94       -72.2233   30.3299  -78.0782 H         1 UNK         0.0784 
     95 H95       -73.3005   30.8108  -79.3885 H         1 UNK         0.0784 
     96 H96       -74.1831   28.2851  -77.1638 H         1 UNK         0.3213 
     97 H97       -76.4868   26.6841  -79.0241 H         1 UNK         0.0855 
     98 H98       -73.7175   26.6272  -80.3425 H         1 UNK         0.0814 
     99 H99       -75.2471   26.8994  -81.1648 H         1 UNK         0.0814 
    100 H100      -74.9228   25.3405  -80.4285 H         1 UNK         0.0814 
    101 H101      -73.8610   25.8657  -77.9990 H         1 UNK         0.3105 
    102 H102      -74.0156   24.4117  -76.1345 H         1 UNK         0.0547 
    103 H103      -72.9770   26.6984  -75.6948 H         1 UNK         0.0837 
    104 H104      -74.1552   26.9702  -74.4183 H         1 UNK         0.0837 
    105 H105      -72.9492   25.6985  -74.2601 H         1 UNK         0.0837 
    106 H106      -76.4423   24.8966  -74.7385 H         1 UNK         0.3020 
    107 H107      -75.5885   22.9627  -71.8062 H         1 UNK         0.1245 
    108 H108      -77.8050   24.7833  -72.8574 H         1 UNK         0.0781 
    109 H109      -76.3773   25.4444  -72.0937 H         1 UNK         0.0781 
    110 H110      -78.9126   25.7736  -69.1100 H         1 UNK         0.0836 
    111 H111      -79.6147   25.6548  -70.7021 H         1 UNK         0.0836 
    112 H112      -77.5252   22.5556  -74.0515 H         1 UNK         0.3022 
    113 H113      -76.9648   19.3542  -74.2016 H         1 UNK         0.0747 
    114 H114      -79.1249   18.3116  -73.4526 H         1 UNK         0.0793 
    115 H115      -77.9633   18.4779  -72.1477 H         1 UNK         0.0793 
    116 H116      -79.3139   19.5915  -72.2535 H         1 UNK         0.0793 
    117 H117      -78.1175   20.3861  -75.7470 H         1 UNK         0.3047 
    118 H118      -79.3460   21.8000  -76.8313 H         1 UNK         0.0822 
    119 H119      -81.6955   21.3721  -77.5308 H         1 UNK         0.0807 
    120 H120      -82.1663   21.0725  -75.8568 H         1 UNK         0.0807 
    121 H121      -81.0605   19.9777  -76.6741 H         1 UNK         0.0807 
    122 H122      -81.5168   23.4601  -76.0850 H         1 UNK         0.2946 
    123 H123      -81.2589   25.6738  -76.1410 H         1 UNK         0.1144 
    124 H124      -81.1389   26.9183  -73.9118 H         1 UNK         0.0793 
    125 H125      -79.8957   25.7735  -73.3950 H         1 UNK         0.0793 
    126 H126      -81.5210   25.2126  -73.7336 H         1 UNK         0.0793 
    127 H127      -78.4585   26.4257  -76.0419 H         1 UNK         0.2896 
@<TRIPOS>BOND
     1    1    2 1    
     2    1   67 1    
     3    1   68 1    
     4    1   69 1    
     5    2    3 2    
     6    2    4 am   BACKBONE|DICT|INTERRES
     7    4    5 1    
     8    4   70 1    
     9    5    6 1    
    10    5   65 1    
    11    5   71 1    
    12    6    7 1    
    13    6   72 1    
    14    6   73 1    
    15    7    8 1    
    16    8    9 1    
    17    8   74 1    
    18    8   75 1    
    19    9   10 ar   
    20    9   14 ar   
    21   10   11 ar   
    22   10   76 1    
    23   11   12 ar   
    24   11   48 1    
    25   12   13 ar   
    26   12   77 1    
    27   13   14 ar   
    28   13   15 1    
    29   14   78 1    
    30   15   16 1    
    31   15   79 1    
    32   15   80 1    
    33   16   17 1    
    34   17   18 1    
    35   17   81 1    
    36   17   82 1    
    37   18   19 1    
    38   18   22 1    
    39   18   83 1    
    40   19   20 am   BACKBONE|DICT|INTERRES
    41   19   21 2    
    42   20   84 1    
    43   20   85 1    
    44   22   23 am   BACKBONE|DICT|INTERRES
    45   22   86 1    
    46   23   24 2    
    47   23   25 1    
    48   25   26 1    
    49   25   27 1    
    50   25   87 1    
    51   26   88 1    
    52   26   89 1    
    53   26   90 1    
    54   27   28 am   BACKBONE|DICT|INTERRES
    55   27   91 1    
    56   28   29 2    
    57   28   30 1    
    58   30   31 1    
    59   30   32 1    
    60   30   92 1    
    61   31   93 1    
    62   31   94 1    
    63   31   95 1    
    64   32   33 am   BACKBONE|DICT|INTERRES
    65   32   96 1    
    66   33   34 2    
    67   33   35 1    
    68   35   36 1    
    69   35   37 1    
    70   35   97 1    
    71   36   98 1    
    72   36   99 1    
    73   36  100 1    
    74   37   38 am   BACKBONE|DICT|INTERRES
    75   37  101 1    
    76   38   39 2    
    77   38   40 1    
    78   40   41 1    
    79   40   42 1    
    80   40  102 1    
    81   41  103 1    
    82   41  104 1    
    83   41  105 1    
    84   42   43 am   BACKBONE|DICT|INTERRES
    85   42  106 1    
    86   43   44 2    
    87   43   45 1    
    88   45   46 1    
    89   45   49 1    
    90   45  107 1    
    91   46   47 1    
    92   46  108 1    
    93   46  109 1    
    94   47   48 1    
    95   48  110 1    
    96   48  111 1    
    97   49   50 am   BACKBONE|DICT|INTERRES
    98   49  112 1    
    99   50   51 2    
   100   50   52 1    
   101   52   53 1    
   102   52   54 1    
   103   52  113 1    
   104   53  114 1    
   105   53  115 1    
   106   53  116 1    
   107   54   55 am   BACKBONE|DICT|INTERRES
   108   54  117 1    
   109   55   56 2    
   110   55   57 1    
   111   57   58 1    
   112   57   59 1    
   113   57  118 1    
   114   58  119 1    
   115   58  120 1    
   116   58  121 1    
   117   59   60 am   BACKBONE|DICT|INTERRES
   118   59  122 1    
   119   60   61 2    
   120   60   62 1    
   121   62   63 1    
   122   62   64 1    
   123   62  123 1    
   124   63  124 1    
   125   63  125 1    
   126   63  126 1    
   127   64   65 am   BACKBONE|DICT|INTERRES
   128   64  127 1    
   129   65   66 2    
@<TRIPOS>SUBSTRUCTURE
     1 UNK         1 GROUP             0       ****    0 ROOT    
